@<TRIPOS>MOLECULE
18
   18     0     1     0     0
SMALL
bcc


@<TRIPOS>ATOM
      1 C1        -15.2570  -14.9230  -11.0210 DU        1 non     -0.075667
      2 C2        -15.6730  -15.9520  -10.1530 DU        1 non     -0.075667
      3 C3        -16.8820  -16.6280  -10.3970 DU        1 non     -0.075667
      4 C4        -17.6720  -16.2730  -11.5080 DU        1 non     -0.075667
      5 C5        -17.2560  -15.2450  -12.3780 DU        1 non     -0.075667
      6 C6        -16.0470  -14.5690  -12.1340 DU        1 non     -0.075667
      7 N1        -14.0590  -14.2520  -10.7800 DU        1 non     -0.019000
      8 N2        -18.8710  -16.9430  -11.7500 DU        1 non     -0.019000
      9 H1        -15.1010  -16.2110   -9.3450 DU        1 non      0.249400
     10 H2        -17.1820  -17.3750   -9.7640 DU        1 non      0.249400
     11 H3        -17.8280  -14.9860  -13.1870 DU        1 non      0.249400
     12 H4        -15.7470  -13.8220  -12.7670 DU        1 non      0.249400
     13 H5        -13.8740  -14.2380   -9.7740 DU        1 non      0.249400
     14 H6        -14.1290  -13.2930  -11.1270 DU        1 non      0.249400
     15 H7        -13.2990  -14.7380  -11.2620 DU        1 non      0.249400
     16 H8        -18.6890  -17.7520  -12.3490 DU        1 non      0.249400
     17 H9        -19.2710  -17.2560  -10.8620 DU        1 non      0.249400
     18 H10       -19.5270  -16.3110  -12.2160 DU        1 non      0.249400
@<TRIPOS>BOND
@<TRIPOS>SUBSTRUCTURE
     1 non         1 TEMP              0 ****  ****    0 ROOT
