@<TRIPOS>MOLECULE

48 48 1
SMALL
USER_CHARGES
@<TRIPOS>ATOM
1	C1    17.0311     1.4966     6.8451	C.2	1	noname	-0.0288
2	C2    16.9263     1.9614     5.5144	C.2	1	noname	-0.0347
3	C3    18.0784     2.1945     4.7447	C.2	1	noname	-0.0347
4	C4    19.3643     1.9697     5.2867	C.2	1	noname	-0.0288
5	C5    19.4691     1.5048     6.6174	C.2	1	noname	-0.0347
6	C6    18.3169     1.2717     7.3871	C.2	1	noname	-0.0347
7	C7    15.8163     1.2749     7.6655	C.3	1	noname	0.0140
8	N1    15.4805     2.5294     8.3769	N.4	1	noname	0.0014
9	C8    14.2801     2.4471     9.2381	C.3	1	noname	-0.0060
10	C9    13.9883     3.7932     9.9506	C.3	1	noname	0.0437
11	C10    12.7317     3.6982    10.8487	C.3	1	noname	-0.0074
12	N2    12.4360     4.9636    11.5343	N.4	1	noname	-0.0091
13	C11    20.5790     2.1913     4.4663	C.3	1	noname	0.0140
14	N3    20.9148     0.9368     3.7549	N.4	1	noname	0.0014
15	C12    22.1153     1.0191     2.8937	C.3	1	noname	-0.0060
16	C13    22.4071    -0.3270     2.1812	C.3	1	noname	0.0437
17	C14    23.6637    -0.2319     1.2831	C.3	1	noname	-0.0074
18	N4    23.9594    -1.4974     0.5975	N.4	1	noname	-0.0091
19	H1    16.0108     2.1367     5.0955	H	1	noname	0.0628
20	H2    17.9698     2.5272     3.7846	H	1	noname	0.0628
21	H3    20.3845     1.3295     7.0363	H	1	noname	0.0628
22	H4    18.4255     0.9390     8.3472	H	1	noname	0.0628
23	H5    15.9879     0.4706     8.3869	H	1	noname	0.0995
24	H6    14.9799     0.9706     7.0295	H	1	noname	0.0995
25	H7    16.2833     2.7916     8.9550	H	1	noname	0.2570
26	H8    15.3346     3.2621     7.6775	H	1	noname	0.2570
27	H9    13.4167     2.1724     8.6246	H	1	noname	0.0942
28	H10    14.4321     1.6688     9.9919	H	1	noname	0.0942
29	H11    13.8346     4.5744     9.2018	H	1	noname	0.0400
30	H12    14.8475     4.0721    10.5658	H	1	noname	0.0400
31	H13    12.8791     2.9256    11.6063	H	1	noname	0.0942
32	H14    11.8653     3.4284    10.2411	H	1	noname	0.0942
33	H15    11.5995     4.8459    12.1122	H	1	noname	0.2554
34	H16    12.2664     5.7034    10.8484	H	1	noname	0.2554
35	H17    13.2210     5.2299    12.1339	H	1	noname	0.2554
36	H18    20.4075     2.9956     3.7448	H	1	noname	0.0995
37	H19    21.4155     2.4957     5.1023	H	1	noname	0.0995
38	H20    20.1121     0.6746     3.1768	H	1	noname	0.2570
39	H21    21.0608     0.2041     4.4543	H	1	noname	0.2570
40	H22    22.9787     1.2939     3.5072	H	1	noname	0.0942
41	H23    21.9633     1.7975     2.1399	H	1	noname	0.0942
42	H24    21.5479    -0.6058     1.5660	H	1	noname	0.0400
43	H25    22.5608    -1.1082     2.9300	H	1	noname	0.0400
44	H26    23.5163     0.5407     0.5255	H	1	noname	0.0942
45	H27    24.5301     0.0378     1.8907	H	1	noname	0.0942
46	H28    24.7959    -1.3797     0.0196	H	1	noname	0.2554
47	H29    23.1744    -1.7637    -0.0021	H	1	noname	0.2554
48	H30    24.1290    -2.2371     1.2834	H	1	noname	0.2554
@<TRIPOS>BOND
1	1	2	1
2	1	6	2
3	1	7	1
4	2	3	2
5	2	19	1
6	3	4	1
7	3	20	1
8	4	5	2
9	4	13	1
10	5	6	1
11	5	21	1
12	6	22	1
13	7	8	1
14	7	23	1
15	7	24	1
16	8	9	1
17	8	25	1
18	8	26	1
19	9	10	1
20	9	27	1
21	9	28	1
22	10	11	1
23	10	29	1
24	10	30	1
25	11	12	1
26	11	31	1
27	11	32	1
28	12	33	1
29	12	34	1
30	12	35	1
31	13	14	1
32	13	36	1
33	13	37	1
34	14	15	1
35	14	38	1
36	14	39	1
37	15	16	1
38	15	40	1
39	15	41	1
40	16	17	1
41	16	42	1
42	16	43	1
43	17	18	1
44	17	44	1
45	17	45	1
46	18	46	1
47	18	47	1
48	18	48	1
@<TRIPOS>SUBSTRUCTURE
1	noname	1
