@<TRIPOS>MOLECULE
48
   48     0     1     0     0
SMALL
bcc


@<TRIPOS>ATOM
      1 C1         17.0310    1.4970    6.8450 DU        1 non     -0.123000
      2 C2         16.9260    1.9610    5.5140 DU        1 non     -0.123000
      3 C3         18.0780    2.1950    4.7450 DU        1 non     -0.123000
      4 C4         19.3640    1.9700    5.2870 DU        1 non     -0.123000
      5 C5         19.4690    1.5050    6.6170 DU        1 non     -0.123000
      6 C6         18.3170    1.2720    7.3870 DU        1 non     -0.123000
      7 C7         15.8160    1.2750    7.6650 DU        1 non     -0.123000
      8 N1         15.4800    2.5290    8.3770 DU        1 non     -0.052500
      9 C8         14.2800    2.4470    9.2380 DU        1 non     -0.123000
     10 C9         13.9880    3.7930    9.9510 DU        1 non     -0.123000
     11 C10        12.7320    3.6980   10.8490 DU        1 non     -0.123000
     12 N2         12.4360    4.9640   11.5340 DU        1 non     -0.052500
     13 C11        20.5790    2.1910    4.4660 DU        1 non     -0.123000
     14 N3         20.9150    0.9370    3.7550 DU        1 non     -0.052500
     15 C12        22.1150    1.0190    2.8940 DU        1 non     -0.123000
     16 C13        22.4070   -0.3270    2.1810 DU        1 non     -0.123000
     17 C14        23.6640   -0.2320    1.2830 DU        1 non     -0.123000
     18 N4         23.9590   -1.4970    0.5980 DU        1 non     -0.052500
     19 H1         16.0110    2.1370    5.0960 DU        1 non      0.197733
     20 H2         17.9700    2.5270    3.7850 DU        1 non      0.197733
     21 H3         20.3840    1.3290    7.0360 DU        1 non      0.197733
     22 H4         18.4250    0.9390    8.3470 DU        1 non      0.197733
     23 H5         15.9880    0.4710    8.3870 DU        1 non      0.197733
     24 H6         14.9800    0.9710    7.0290 DU        1 non      0.197733
     25 H7         16.2830    2.7920    8.9550 DU        1 non      0.197733
     26 H8         15.3350    3.2620    7.6780 DU        1 non      0.197733
     27 H9         13.4170    2.1720    8.6250 DU        1 non      0.197733
     28 H10        14.4320    1.6690    9.9920 DU        1 non      0.197733
     29 H11        13.8350    4.5740    9.2020 DU        1 non      0.197733
     30 H12        14.8480    4.0720   10.5660 DU        1 non      0.197733
     31 H13        12.8790    2.9260   11.6060 DU        1 non      0.197733
     32 H14        11.8650    3.4280   10.2410 DU        1 non      0.197733
     33 H15        11.6000    4.8460   12.1120 DU        1 non      0.197733
     34 H16        12.2660    5.7030   10.8480 DU        1 non      0.197733
     35 H17        13.2210    5.2300   12.1340 DU        1 non      0.197733
     36 H18        20.4070    2.9960    3.7450 DU        1 non      0.197733
     37 H19        21.4160    2.4960    5.1020 DU        1 non      0.197733
     38 H20        20.1120    0.6750    3.1770 DU        1 non      0.197733
     39 H21        21.0610    0.2040    4.4540 DU        1 non      0.197733
     40 H22        22.9790    1.2940    3.5070 DU        1 non      0.197733
     41 H23        21.9630    1.7980    2.1400 DU        1 non      0.197733
     42 H24        21.5480   -0.6060    1.5660 DU        1 non      0.197733
     43 H25        22.5610   -1.1080    2.9300 DU        1 non      0.197733
     44 H26        23.5160    0.5410    0.5250 DU        1 non      0.197733
     45 H27        24.5300    0.0380    1.8910 DU        1 non      0.197733
     46 H28        24.7960   -1.3800    0.0200 DU        1 non      0.197733
     47 H29        23.1740   -1.7640   -0.0020 DU        1 non      0.197733
     48 H30        24.1290   -2.2370    1.2830 DU        1 non      0.197733
@<TRIPOS>BOND
@<TRIPOS>SUBSTRUCTURE
     1 non         1 TEMP              0 ****  ****    0 ROOT
