@<TRIPOS>MOLECULE
24
   24     0     1     0     0
SMALL
bcc


@<TRIPOS>ATOM
      1 O1          4.8190  -16.4110   -8.7060 os        1 non     -0.324000
      2 C1          4.1130  -16.4710   -9.9400 DU        1 non     -0.137167
      3 C2          2.6900  -15.8930   -9.7820 DU        1 non     -0.137167
      4 C3          1.8770  -15.9350  -11.1020 DU        1 non     -0.137167
      5 C4          0.4450  -15.3540  -10.9420 DU        1 non     -0.137167
      6 C5         -0.3710  -15.3950  -12.2620 DU        1 non     -0.137167
      7 C6         -1.7960  -14.8150  -12.0970 DU        1 non     -0.137167
      8 N1         -2.5200  -14.8780  -13.3700 DU        1 non     -0.067000
      9 H1          5.6980  -16.7960   -8.9100 DU        1 non      0.138375
     10 H2          4.6690  -15.8990  -10.6860 DU        1 non      0.138375
     11 H3          4.0620  -17.5130  -10.2610 DU        1 non      0.138375
     12 H4          2.1600  -16.4670   -9.0160 DU        1 non      0.138375
     13 H5          2.7660  -14.8570   -9.4400 DU        1 non      0.138375
     14 H6          1.8020  -16.9730  -11.4420 DU        1 non      0.138375
     15 H7          2.4090  -15.3610  -11.8670 DU        1 non      0.138375
     16 H8          0.5180  -14.3160  -10.6050 DU        1 non      0.138375
     17 H9         -0.0890  -15.9290  -10.1800 DU        1 non      0.138375
     18 H10         0.1560  -14.8180  -13.0280 DU        1 non      0.138375
     19 H11        -0.4510  -16.4310  -12.6030 DU        1 non      0.138375
     20 H12        -1.7460  -13.7720  -11.7760 DU        1 non      0.138375
     21 H13        -2.3540  -15.3870  -11.3510 DU        1 non      0.138375
     22 H14        -3.4580  -14.4940  -13.2520 DU        1 non      0.138375
     23 H15        -2.0150  -14.3360  -14.0740 DU        1 non      0.138375
     24 H16        -2.5850  -15.8520  -13.6750 DU        1 non      0.138375
@<TRIPOS>BOND
@<TRIPOS>SUBSTRUCTURE
     1 non         1 TEMP              0 ****  ****    0 ROOT
