@<TRIPOS>MOLECULE

24 23 1
SMALL
USER_CHARGES
@<TRIPOS>ATOM
1	O1     4.8186   -16.4108    -8.7055	O.3	1	noname	-0.3962
2	C1     4.1133   -16.4707    -9.9402	C.3	1	noname	0.0432
3	C2     2.6900   -15.8933    -9.7819	C.3	1	noname	-0.0299
4	C3     1.8766   -15.9352   -11.1025	C.3	1	noname	-0.0509
5	C4     0.4452   -15.3543   -10.9422	C.3	1	noname	-0.0471
6	C5    -0.3713   -15.3948   -12.2618	C.3	1	noname	-0.0045
7	C6    -1.7965   -14.8150   -12.0966	C.3	1	noname	-0.0137
8	N1    -2.5201   -14.8781   -13.3697	N.4	1	noname	-0.0093
9	H1     5.6982   -16.7955    -8.9097	H	1	noname	0.2100
10	H2     4.6692   -15.8995   -10.6861	H	1	noname	0.0563
11	H3     4.0621   -17.5128   -10.2610	H	1	noname	0.0563
12	H4     2.1600   -16.4667    -9.0157	H	1	noname	0.0290
13	H5     2.7658   -14.8570    -9.4399	H	1	noname	0.0290
14	H6     1.8025   -16.9726   -11.4421	H	1	noname	0.0267
15	H7     2.4089   -15.3611   -11.8667	H	1	noname	0.0267
16	H8     0.5177   -14.3164   -10.6050	H	1	noname	0.0269
17	H9    -0.0891   -15.9288   -10.1801	H	1	noname	0.0269
18	H10     0.1556   -14.8184   -13.0284	H	1	noname	0.0332
19	H11    -0.4514   -16.4313   -12.6034	H	1	noname	0.0332
20	H12    -1.7459   -13.7716   -11.7760	H	1	noname	0.0939
21	H13    -2.3537   -15.3866   -11.3505	H	1	noname	0.0939
22	H14    -3.4582   -14.4940   -13.2518	H	1	noname	0.2554
23	H15    -2.0149   -14.3363   -14.0741	H	1	noname	0.2554
24	H16    -2.5851   -15.8516   -13.6748	H	1	noname	0.2554
@<TRIPOS>BOND
1	1	2	1
2	1	9	1
3	2	3	1
4	2	10	1
5	2	11	1
6	3	4	1
7	3	12	1
8	3	13	1
9	4	5	1
10	4	14	1
11	4	15	1
12	5	6	1
13	5	16	1
14	5	17	1
15	6	7	1
16	6	18	1
17	6	19	1
18	7	8	1
19	7	20	1
20	7	21	1
21	8	22	1
22	8	23	1
23	8	24	1
@<TRIPOS>SUBSTRUCTURE
1	noname	1
