@<TRIPOS>MOLECULE

24 24 1
SMALL
USER_CHARGES
@<TRIPOS>ATOM
1	C1     2.3774    19.0212     5.9522	C.3	1	noname	-0.0016
2	C2     1.2755    18.3267     5.1058	C.3	1	noname	-0.0028
3	C3    -0.0688    19.1127     5.0337	C.3	1	noname	-0.0016
4	C4     2.0369    19.1930     7.4541	C.3	1	noname	-0.0469
5	C5     0.9020    20.2125     7.7352	C.3	1	noname	-0.0530
6	C6    -0.9710    18.9542     6.2877	C.3	1	noname	-0.0469
7	C7    -0.5389    19.6494     7.6175	C.3	1	noname	-0.0530
8	N1     1.7938    18.1265     3.7438	N.4	1	noname	-0.0072
9	H1     2.6057    19.9997     5.5186	H	1	noname	0.0336
10	H2     3.2910    18.4200     5.8884	H	1	noname	0.0336
11	H3     1.0909    17.3284     5.5093	H	1	noname	0.0977
12	H4    -0.6438    18.7214     4.1875	H	1	noname	0.0336
13	H5     0.1130    20.1731     4.8333	H	1	noname	0.0336
14	H6     2.9417    19.5547     7.9507	H	1	noname	0.0269
15	H7     1.7916    18.2227     7.8958	H	1	noname	0.0269
16	H8     1.0081    21.0849     7.0841	H	1	noname	0.0266
17	H9     1.0251    20.5685     8.7622	H	1	noname	0.0266
18	H10    -1.1005    17.8830     6.4736	H	1	noname	0.0269
19	H11    -1.9638    19.3356     6.0244	H	1	noname	0.0269
20	H12    -1.2212    20.4837     7.8095	H	1	noname	0.0266
21	H13    -0.6898    18.9377     8.4346	H	1	noname	0.0266
22	H14     1.1065    17.6112     3.1897	H	1	noname	0.2556
23	H15     1.9737    19.0322     3.3065	H	1	noname	0.2556
24	H16     2.6623    17.5888     3.7836	H	1	noname	0.2556
@<TRIPOS>BOND
1	1	2	1
2	1	4	1
3	1	9	1
4	1	10	1
5	2	3	1
6	2	8	1
7	2	11	1
8	3	6	1
9	3	12	1
10	3	13	1
11	4	5	1
12	4	14	1
13	4	15	1
14	5	7	1
15	5	16	1
16	5	17	1
17	7	6	1
18	6	18	1
19	6	19	1
20	7	20	1
21	7	21	1
22	8	22	1
23	8	23	1
24	8	24	1
@<TRIPOS>SUBSTRUCTURE
1	noname	1
