@<TRIPOS>MOLECULE
24
   24     0     1     0     0
SMALL
bcc


@<TRIPOS>ATOM
      1 C1          2.3770   19.0210    5.9520 DU        1 non     -0.152143
      2 C2          1.2760   18.3270    5.1060 DU        1 non     -0.152143
      3 C3         -0.0690   19.1130    5.0340 DU        1 non     -0.152143
      4 C4          2.0370   19.1930    7.4540 DU        1 non     -0.152143
      5 C5          0.9020   20.2120    7.7350 DU        1 non     -0.152143
      6 C6         -0.9710   18.9540    6.2880 DU        1 non     -0.152143
      7 C7         -0.5390   19.6490    7.6170 DU        1 non     -0.152143
      8 N1          1.7940   18.1270    3.7440 DU        1 non     -0.076000
      9 H1          2.6060   20.0000    5.5190 DU        1 non      0.133750
     10 H2          3.2910   18.4200    5.8880 DU        1 non      0.133750
     11 H3          1.0910   17.3280    5.5090 DU        1 non      0.133750
     12 H4         -0.6440   18.7210    4.1880 DU        1 non      0.133750
     13 H5          0.1130   20.1730    4.8330 DU        1 non      0.133750
     14 H6          2.9420   19.5550    7.9510 DU        1 non      0.133750
     15 H7          1.7920   18.2230    7.8960 DU        1 non      0.133750
     16 H8          1.0080   21.0850    7.0840 DU        1 non      0.133750
     17 H9          1.0250   20.5690    8.7620 DU        1 non      0.133750
     18 H10        -1.1010   17.8830    6.4740 DU        1 non      0.133750
     19 H11        -1.9640   19.3360    6.0240 DU        1 non      0.133750
     20 H12        -1.2210   20.4840    7.8090 DU        1 non      0.133750
     21 H13        -0.6900   18.9380    8.4350 DU        1 non      0.133750
     22 H14         1.1070   17.6110    3.1900 DU        1 non      0.133750
     23 H15         1.9740   19.0320    3.3070 DU        1 non      0.133750
     24 H16         2.6620   17.5890    3.7840 DU        1 non      0.133750
@<TRIPOS>BOND
@<TRIPOS>SUBSTRUCTURE
     1 non         1 TEMP              0 ****  ****    0 ROOT
