@<TRIPOS>MOLECULE
24
   24     0     1     0     0
SMALL
bcc


@<TRIPOS>ATOM
      1 C1         16.9370   17.9960  -11.4380 DU        1 non     -0.150333
      2 C2         16.2460   19.1950  -12.1400 DU        1 non     -0.150333
      3 C3         17.2690   20.0590  -12.9210 DU        1 non     -0.150333
      4 C4         18.4240   20.5370  -12.0010 DU        1 non     -0.150333
      5 C5         19.1250   19.3400  -11.2940 DU        1 non     -0.150333
      6 C6         18.0960   18.4660  -10.5120 DU        1 non     -0.150333
      7 N1         18.7520   17.3040   -9.8840 DU        1 non     -0.088000
      8 N2         20.1950   19.8270  -10.4050 DU        1 non     -0.088000
      9 H1         16.1930   17.4560  -10.8490 DU        1 non      0.192625
     10 H2         17.3250   17.3130  -12.2000 DU        1 non      0.192625
     11 H3         15.4830   18.8250  -12.8290 DU        1 non      0.192625
     12 H4         15.7460   19.8170  -11.3900 DU        1 non      0.192625
     13 H5         17.6810   19.4720  -13.7480 DU        1 non      0.192625
     14 H6         16.7600   20.9260  -13.3480 DU        1 non      0.192625
     15 H7         18.0210   21.2260  -11.2520 DU        1 non      0.192625
     16 H8         19.1520   21.0830  -12.6040 DU        1 non      0.192625
     17 H9         19.6050   18.7220  -12.0590 DU        1 non      0.192625
     18 H10        17.6670   19.0640   -9.7010 DU        1 non      0.192625
     19 H11        18.0640   16.7680   -9.3500 DU        1 non      0.192625
     20 H12        19.4840   17.6310   -9.2480 DU        1 non      0.192625
     21 H13        19.1700   16.7040  -10.5980 DU        1 non      0.192625
     22 H14        20.8730   20.3670  -10.9480 DU        1 non      0.192625
     23 H15        19.8040   20.4170   -9.6680 DU        1 non      0.192625
     24 H16        20.6720   19.0280   -9.9790 DU        1 non      0.192625
@<TRIPOS>BOND
@<TRIPOS>SUBSTRUCTURE
     1 non         1 TEMP              0 ****  ****    0 ROOT
