@<TRIPOS>MOLECULE
41
   41     0     1     0     0
SMALL
bcc


@<TRIPOS>ATOM
      1 C1         18.3950  -17.7420  -18.1980 DU        1 non     -0.168917
      2 C2         18.5670  -16.6600  -17.1060 DU        1 non     -0.168917
      3 C3         18.2590  -17.2030  -15.6830 DU        1 non     -0.168917
      4 C4         18.4240  -16.1350  -14.5700 DU        1 non     -0.168917
      5 C5         18.1150  -16.6800  -13.1460 DU        1 non     -0.168917
      6 C6         18.2900  -15.5860  -12.0610 DU        1 non     -0.168917
      7 C7         17.9920  -16.0890  -10.6230 DU        1 non     -0.168917
      8 C8         18.1820  -14.9580   -9.5790 DU        1 non     -0.168917
      9 C9         17.8960  -15.4000   -8.1100 DU        1 non     -0.168917
     10 N1         18.0580  -14.3510   -7.0180 DU        1 non      0.028000
     11 C10        17.7340  -14.9920   -5.6850 DU        1 non     -0.168917
     12 C11        17.1110  -13.1910   -7.2250 DU        1 non     -0.168917
     13 C12        19.4780  -13.8360   -6.9580 DU        1 non     -0.168917
     14 H1         18.6200  -17.3230  -19.1810 DU        1 non      0.107250
     15 H2         19.0740  -18.5780  -18.0130 DU        1 non      0.107250
     16 H3         17.3680  -18.1130  -18.2050 DU        1 non      0.107250
     17 H4         19.5950  -16.2880  -17.1440 DU        1 non      0.107250
     18 H5         17.8970  -15.8260  -17.3350 DU        1 non      0.107250
     19 H6         18.9310  -18.0400  -15.4720 DU        1 non      0.107250
     20 H7         17.2310  -17.5770  -15.6640 DU        1 non      0.107250
     21 H8         17.7520  -15.2980  -14.7820 DU        1 non      0.107250
     22 H9         19.4520  -15.7610  -14.5910 DU        1 non      0.107250
     23 H10        17.0870  -17.0510  -13.1160 DU        1 non      0.107250
     24 H11        18.7870  -17.5140  -12.9250 DU        1 non      0.107250
     25 H12        17.6190  -14.7520  -12.2870 DU        1 non      0.107250
     26 H13        19.3200  -15.2150  -12.0960 DU        1 non      0.107250
     27 H14        16.9630  -16.4560  -10.5770 DU        1 non      0.107250
     28 H15        18.6630  -16.9180  -10.3860 DU        1 non      0.107250
     29 H16        17.5130  -14.1370   -9.8460 DU        1 non      0.107250
     30 H17        19.2110  -14.6000   -9.6550 DU        1 non      0.107250
     31 H18        18.5570  -16.2490   -7.9010 DU        1 non      0.107250
     32 H19        16.8720  -15.7900   -8.0910 DU        1 non      0.107250
     33 H20        18.4010  -15.8310   -5.4700 DU        1 non      0.107250
     34 H21        16.7090  -15.3710   -5.6610 DU        1 non      0.107250
     35 H22        17.8350  -14.2790   -4.8600 DU        1 non      0.107250
     36 H23        16.0790  -13.5360   -7.3370 DU        1 non      0.107250
     37 H24        17.1350  -12.4940   -6.3830 DU        1 non      0.107250
     38 H25        17.3650  -12.6130   -8.1150 DU        1 non      0.107250
     39 H26        19.6330  -13.1730   -6.1020 DU        1 non      0.107250
     40 H27        20.1960  -14.6570   -6.8730 DU        1 non      0.107250
     41 H28        19.7390  -13.2590   -7.8470 DU        1 non      0.107250
@<TRIPOS>BOND
@<TRIPOS>SUBSTRUCTURE
     1 non         1 TEMP              0 ****  ****    0 ROOT
