@<TRIPOS>MOLECULE

30 32 1
SMALL
USER_CHARGES
@<TRIPOS>ATOM
1	C1   -15.2558    19.6226     4.5014	C.3	1	noname	-0.0468
2	C2   -14.9067    18.5220     5.5556	C.3	1	noname	-0.0317
3	C3   -15.9003    17.3244     5.4083	C.3	1	noname	-0.0207
4	C4   -17.3664    17.8220     5.6357	C.3	1	noname	0.0721
5	C5   -16.7191    20.1246     4.7272	C.3	1	noname	-0.0317
6	C6   -17.7108    18.9253     4.5807	C.3	1	noname	-0.0207
7	C7   -16.8421    20.7284     6.1621	C.3	1	noname	0.0043
8	C8   -15.0287    19.1248     6.9910	C.3	1	noname	0.0043
9	C9   -17.4879    18.4271     7.0721	C.3	1	noname	0.0302
10	C10   -16.4934    19.6274     7.2186	C.3	1	noname	0.0113
11	N1   -16.6098    20.1929     8.5671	N.4	1	noname	-0.0051
12	O1   -18.2770    16.7291     5.5135	O.3	1	noname	-0.3894
13	H1   -14.5548    20.4586     4.5854	H	1	noname	0.0272
14	H2   -15.1526    19.2172     3.4914	H	1	noname	0.0272
15	H3   -13.8824    18.1734     5.3960	H	1	noname	0.0306
16	H4   -15.6509    16.5417     6.1304	H	1	noname	0.0299
17	H5   -15.8025    16.8841     4.4119	H	1	noname	0.0299
18	H6   -16.9601    20.8950     3.9892	H	1	noname	0.0306
19	H7   -18.7388    19.2723     4.7190	H	1	noname	0.0299
20	H8   -17.6448    18.5133     3.5698	H	1	noname	0.0299
21	H9   -16.1653    21.5821     6.2697	H	1	noname	0.0342
22	H10   -17.8577    21.1025     6.3263	H	1	noname	0.0342
23	H11   -14.3228    19.9528     7.1118	H	1	noname	0.0342
24	H12   -14.7672    18.3695     7.7390	H	1	noname	0.0342
25	H13   -17.2651    17.6606     7.8204	H	1	noname	0.0369
26	H14   -18.5135    18.7645     7.2498	H	1	noname	0.0369
27	H15   -15.9602    20.9766     8.6621	H	1	noname	0.2559
28	H16   -17.5665    20.5208     8.7157	H	1	noname	0.2559
29	H17   -16.3823    19.4736     9.2569	H	1	noname	0.2559
30	H18   -18.1518    16.3980     4.5988	H	1	noname	0.2108
@<TRIPOS>BOND
1	1	2	1
2	1	5	1
3	1	13	1
4	1	14	1
5	2	8	1
6	2	3	1
7	2	15	1
8	3	4	1
9	3	16	1
10	3	17	1
11	4	6	1
12	4	9	1
13	4	12	1
14	5	7	1
15	5	6	1
16	5	18	1
17	6	19	1
18	6	20	1
19	7	10	1
20	7	21	1
21	7	22	1
22	8	10	1
23	8	23	1
24	8	24	1
25	9	10	1
26	9	25	1
27	9	26	1
28	10	11	1
29	11	27	1
30	11	28	1
31	11	29	1
32	12	30	1
@<TRIPOS>SUBSTRUCTURE
1	noname	1
