@<TRIPOS>MOLECULE
21
   21     0     1     0     0
SMALL
bcc


@<TRIPOS>ATOM
      1 C1        -17.9640    1.9390  -10.0300 DU        1 non     -0.090143
      2 C2        -18.1030    2.3420  -11.3720 DU        1 non     -0.090143
      3 C3        -16.9790    2.3760  -12.2160 DU        1 non     -0.090143
      4 C4        -15.7000    2.0130  -11.7310 DU        1 non     -0.090143
      5 C5        -15.5770    1.5970  -10.3840 DU        1 non     -0.090143
      6 C6        -16.7000    1.5630   -9.5390 DU        1 non     -0.090143
      7 N1        -19.0780    1.9090   -9.1910 DU        1 non     -0.042000
      8 C7        -14.5200    2.0360  -12.6250 DU        1 non     -0.090143
      9 N2        -14.3920    0.7310  -13.2770 DU        1 non     -0.042000
     10 H1        -19.0180    2.6120  -11.7380 DU        1 non      0.226417
     11 H2        -17.1050    2.6640  -13.1900 DU        1 non      0.226417
     12 H3        -14.6690    1.3130  -10.0080 DU        1 non      0.226417
     13 H4        -16.5910    1.2650   -8.5660 DU        1 non      0.226417
     14 H5        -19.5160    0.9900   -9.2450 DU        1 non      0.226417
     15 H6        -18.7870    2.0910   -8.2290 DU        1 non      0.226417
     16 H7        -19.7460    2.6230   -9.4820 DU        1 non      0.226417
     17 H8        -14.6190    2.8090  -13.3900 DU        1 non      0.226417
     18 H9        -13.6050    2.2460  -12.0660 DU        1 non      0.226417
     19 H10       -13.5800    0.7350  -13.8970 DU        1 non      0.226417
     20 H11       -15.2340    0.5370  -13.8230 DU        1 non      0.226417
     21 H12       -14.2740    0.0040  -12.5690 DU        1 non      0.226417
@<TRIPOS>BOND
@<TRIPOS>SUBSTRUCTURE
     1 non         1 TEMP              0 ****  ****    0 ROOT
