@<TRIPOS>MOLECULE
22
   22     0     1     0     0
SMALL
bcc


@<TRIPOS>ATOM
      1 C1         18.0180    0.8880  -10.3890 DU        1 non     -0.127333
      2 C2         17.1720    0.8750  -11.6940 DU        1 non     -0.127333
      3 C3         16.9240    2.3130  -12.2270 DU        1 non     -0.127333
      4 C4         18.2570    3.0830  -12.4320 DU        1 non     -0.127333
      5 C5         19.1040    3.0950  -11.1310 DU        1 non     -0.127333
      6 C6         19.3530    1.6600  -10.5960 DU        1 non     -0.127333
      7 N1         18.2750   -0.4810   -9.9220 DU        1 non     -0.071000
      8 O1         17.9910    4.4210  -12.8510 os        1 non     -0.305000
      9 H1         17.4420    1.3890   -9.6040 DU        1 non      0.153000
     10 H2         17.6840    0.2900  -12.4630 DU        1 non      0.153000
     11 H3         16.2090    0.3970  -11.4990 DU        1 non      0.153000
     12 H4         16.2890    2.8580  -11.5230 DU        1 non      0.153000
     13 H5         16.3920    2.2560  -13.1790 DU        1 non      0.153000
     14 H6         18.8300    2.5930  -13.2250 DU        1 non      0.153000
     15 H7         20.0640    3.5760  -11.3290 DU        1 non      0.153000
     16 H8         18.5890    3.6830  -10.3660 DU        1 non      0.153000
     17 H9         19.8880    1.7210   -9.6470 DU        1 non      0.153000
     18 H10        19.9880    1.1190  -11.3030 DU        1 non      0.153000
     19 H11        17.3870   -0.9600   -9.7610 DU        1 non      0.153000
     20 H12        18.8120   -0.9990  -10.6180 DU        1 non      0.153000
     21 H13        18.8030   -0.4510   -9.0480 DU        1 non      0.153000
     22 H14        18.8770    4.8040  -13.0280 DU        1 non      0.153000
@<TRIPOS>BOND
@<TRIPOS>SUBSTRUCTURE
     1 non         1 TEMP              0 ****  ****    0 ROOT
