@<TRIPOS>MOLECULE

27 27 1
SMALL
USER_CHARGES
@<TRIPOS>ATOM
1	N1    -1.3798     1.3180    -9.4809	N.4	1	noname	0.0069
2	C1    -0.9049     0.2803   -10.4183	C.3	1	noname	0.0378
3	C2     0.5476     0.5743   -10.8691	C.3	1	noname	0.0391
4	N2     0.6997     1.9647   -11.4140	N.4	1	noname	0.0187
5	C3     0.1578     3.0008   -10.4729	C.3	1	noname	0.0391
6	C4    -1.2883     2.6901   -10.0212	C.3	1	noname	0.0378
7	C5     2.1025     2.3067   -11.8238	C.3	1	noname	0.0391
8	C6     2.7104     1.4556   -12.9662	C.3	1	noname	0.0364
9	N3     4.0476     1.9666   -13.2951	N.4	1	noname	-0.0048
10	H1    -2.3516     1.1199    -9.2340	H	1	noname	0.2571
11	H2    -0.8128     1.2673    -8.6323	H	1	noname	0.2571
12	H3    -0.9381    -0.6878    -9.9125	H	1	noname	0.1009
13	H4    -1.5667     0.2321   -11.2875	H	1	noname	0.1009
14	H5     1.2207     0.4231   -10.0193	H	1	noname	0.1009
15	H6     0.7969    -0.1600   -11.6374	H	1	noname	0.1009
16	H7     0.1226     2.0109   -12.2571	H	1	noname	0.2585
17	H8     0.1463     3.9793   -10.9631	H	1	noname	0.1009
18	H9     0.7923     3.0767    -9.5831	H	1	noname	0.1009
19	H10    -1.9737     2.8037   -10.8649	H	1	noname	0.1009
20	H11    -1.5854     3.3940    -9.2406	H	1	noname	0.1009
21	H12     2.7632     2.2479   -10.9535	H	1	noname	0.1009
22	H13     2.1168     3.3393   -12.1823	H	1	noname	0.1009
23	H14     2.8163     0.4124   -12.6692	H	1	noname	0.1008
24	H15     2.0777     1.5117   -13.8544	H	1	noname	0.1008
25	H16     3.9681     2.9332   -13.6160	H	1	noname	0.2556
26	H17     4.6405     1.9369   -12.4619	H	1	noname	0.2556
27	H18     4.4712     1.3965   -14.0307	H	1	noname	0.2556
@<TRIPOS>BOND
1	1	2	1
2	1	6	1
3	1	10	1
4	1	11	1
5	2	3	1
6	2	12	1
7	2	13	1
8	3	4	1
9	3	14	1
10	3	15	1
11	4	5	1
12	4	7	1
13	4	16	1
14	5	6	1
15	5	17	1
16	5	18	1
17	6	19	1
18	6	20	1
19	7	8	1
20	7	21	1
21	7	22	1
22	8	9	1
23	8	23	1
24	8	24	1
25	9	25	1
26	9	26	1
27	9	27	1
@<TRIPOS>SUBSTRUCTURE
1	noname	1
