@<TRIPOS>MOLECULE
27
   27     0     1     0     0
SMALL
bcc


@<TRIPOS>ATOM
      1 N1         -1.3800    1.3180   -9.4810 DU        1 non     -0.041000
      2 C1         -0.9050    0.2800  -10.4180 DU        1 non     -0.158333
      3 C2          0.5480    0.5740  -10.8690 DU        1 non     -0.158333
      4 N2          0.7000    1.9650  -11.4140 DU        1 non     -0.041000
      5 C3          0.1580    3.0010  -10.4730 DU        1 non     -0.158333
      6 C4         -1.2880    2.6900  -10.0210 DU        1 non     -0.158333
      7 C5          2.1030    2.3070  -11.8240 DU        1 non     -0.158333
      8 C6          2.7100    1.4560  -12.9660 DU        1 non     -0.158333
      9 N3          4.0480    1.9670  -13.2950 DU        1 non     -0.041000
     10 H1         -2.3520    1.1200   -9.2340 DU        1 non      0.226222
     11 H2         -0.8130    1.2670   -8.6320 DU        1 non      0.226222
     12 H3         -0.9380   -0.6880   -9.9120 DU        1 non      0.226222
     13 H4         -1.5670    0.2320  -11.2870 DU        1 non      0.226222
     14 H5          1.2210    0.4230  -10.0190 DU        1 non      0.226222
     15 H6          0.7970   -0.1600  -11.6370 DU        1 non      0.226222
     16 H7          0.1230    2.0110  -12.2570 DU        1 non      0.226222
     17 H8          0.1460    3.9790  -10.9630 DU        1 non      0.226222
     18 H9          0.7920    3.0770   -9.5830 DU        1 non      0.226222
     19 H10        -1.9740    2.8040  -10.8650 DU        1 non      0.226222
     20 H11        -1.5850    3.3940   -9.2410 DU        1 non      0.226222
     21 H12         2.7630    2.2480  -10.9540 DU        1 non      0.226222
     22 H13         2.1170    3.3390  -12.1820 DU        1 non      0.226222
     23 H14         2.8160    0.4120  -12.6690 DU        1 non      0.226222
     24 H15         2.0780    1.5120  -13.8540 DU        1 non      0.226222
     25 H16         3.9680    2.9330  -13.6160 DU        1 non      0.226222
     26 H17         4.6410    1.9370  -12.4620 DU        1 non      0.226222
     27 H18         4.4710    1.3970  -14.0310 DU        1 non      0.226222
@<TRIPOS>BOND
@<TRIPOS>SUBSTRUCTURE
     1 non         1 TEMP              0 ****  ****    0 ROOT
