@<TRIPOS>MOLECULE
*****
  126   147     1     0     0
SMALL
bcc


@<TRIPOS>ATOM
      1 O           7.9810    6.3120    9.6190 o         1 LIG     -0.579500
      2 O1          8.6160    6.7630   13.0940 o         1 LIG     -0.579500
      3 O2         11.4990    8.8020   14.3330 o         1 LIG     -0.579500
      4 O3         13.9010   10.7250   12.3460 o         1 LIG     -0.579500
      5 O4         13.9930   11.0630    8.7380 o         1 LIG     -0.579500
      6 O5         11.8770    9.7700    5.9860 o         1 LIG     -0.579500
      7 O6          9.1120    7.6730    6.3630 o         1 LIG     -0.579500
      8 O7         10.9580    1.2320    9.0820 o         1 LIG     -0.579500
      9 O8         12.1450    1.8660   12.2420 o         1 LIG     -0.579500
     10 O9         15.1520    3.9920   13.3920 o         1 LIG     -0.579500
     11 O10        17.6000    6.0220   11.7040 o         1 LIG     -0.579500
     12 O11        17.8950    6.4610    8.3400 o         1 LIG     -0.579500
     13 O12        15.5980    4.9260    5.9100 o         1 LIG     -0.579500
     14 O13        12.5750    2.7060    6.3020 o         1 LIG     -0.579500
     15 N           8.0200    4.4590    8.2180 n         1 LIG     -0.495300
     16 N1          7.8470    4.1490   10.4160 n         1 LIG     -0.495300
     17 N2          8.6010    4.4960   12.6900 n         1 LIG     -0.495300
     18 N3          9.9810    5.3030   14.2280 n         1 LIG     -0.495300
     19 N4         11.8550    6.6160   15.0170 n         1 LIG     -0.495300
     20 N5         13.6210    7.9520   14.7490 n         1 LIG     -0.495300
     21 N6         15.2540    9.3600   13.6400 n         1 LIG     -0.495300
     22 N7         16.0740   10.1810   11.7570 n         1 LIG     -0.495300
     23 N8         16.1550   10.4410    9.3370 n         1 LIG     -0.495300
     24 N9         15.4730   10.0900    7.2490 n         1 LIG     -0.495300
     25 N10        14.0510    9.1100    5.5600 n         1 LIG     -0.495300
     26 N11        12.4040    7.9000    4.7290 n         1 LIG     -0.495300
     27 N12        10.4400    6.4730    4.9140 n         1 LIG     -0.495300
     28 N13         9.0500    5.3550    6.2230 n         1 LIG     -0.495300
     29 N14         9.2850    2.4120    8.0200 n         1 LIG     -0.495300
     30 N15         9.0900    2.0490   10.1910 n         1 LIG     -0.495300
     31 N16         9.9430    2.4820   12.4400 n         1 LIG     -0.495300
     32 N17        11.3960    3.3580   13.8430 n         1 LIG     -0.495300
     33 N18        13.3040    4.6970   14.5770 n         1 LIG     -0.495300
     34 N19        15.0870    6.0160   14.4930 n         1 LIG     -0.495300
     35 N20        16.6800    7.4030   13.3210 n         1 LIG     -0.495300
     36 N21        17.6530    8.3410   11.5570 n         1 LIG     -0.495300
     37 N22        17.7760    8.6310    9.1440 n         1 LIG     -0.495300
     38 N23        16.9920    8.1860    7.1210 n         1 LIG     -0.495300
     39 N24        15.5630    7.1910    5.4540 n         1 LIG     -0.495300
     40 N25        13.8650    5.9410    4.7580 n         1 LIG     -0.495300
     41 N26        11.9230    4.5420    5.0540 n         1 LIG     -0.495300
     42 N27        10.3490    3.3060    6.0340 n         1 LIG     -0.495300
     43 C           7.9560    5.0890    9.4350 c         1 LIG      0.805500
     44 C1          7.4750    4.4650   11.7760 c3        1 LIG      0.284400
     45 H           6.8220    3.7930   12.0950 h2        1 LIG      0.084700
     46 H1          7.0300    5.3490   11.7880 h2        1 LIG      0.084700
     47 C2          9.0090    5.6390   13.3100 c         1 LIG      0.805500
     48 C3         10.4610    6.2390   15.2170 c3        1 LIG      0.284400
     49 H2         10.3630    5.8340   16.1150 h2        1 LIG      0.084700
     50 H3          9.8990    7.0520   15.1880 h2        1 LIG      0.084700
     51 C4         12.2410    7.8920   14.6630 c         1 LIG      0.805500
     52 C5         14.3420    9.2170   14.7490 c3        1 LIG      0.284400
     53 H4         13.6880    9.9600   14.7230 h2        1 LIG      0.084700
     54 H5         14.8520    9.2950   15.5960 h2        1 LIG      0.084700
     55 C6         14.9650   10.1310   12.5510 c         1 LIG      0.805500
     56 C7         16.1830   11.0870   10.6270 c3        1 LIG      0.284400
     57 H6         15.4390   11.7390   10.6720 h2        1 LIG      0.084700
     58 H7         17.0290   11.5940   10.7100 h2        1 LIG      0.084700
     59 C8         15.0940   10.5800    8.4670 c         1 LIG      0.805500
     60 C9         14.6950   10.2980    6.0670 c3        1 LIG      0.284400
     61 H8         15.2840   10.6660    5.3580 h2        1 LIG      0.084700
     62 H9         14.0000   10.9780    6.2590 h2        1 LIG      0.084700
     63 C10        12.7060    8.9930    5.4780 c         1 LIG      0.805500
     64 C11        11.0490    7.6080    4.2540 c3        1 LIG      0.284400
     65 H10        10.4800    8.4050    4.4000 h2        1 LIG      0.084700
     66 H11        11.0800    7.4330    3.2800 h2        1 LIG      0.084700
     67 C12         9.5070    6.6010    5.8890 c         1 LIG      0.805500
     68 C13         7.8100    5.1540    6.9740 c3        1 LIG      0.284400
     69 H12         7.3980    6.0360    7.1640 h2        1 LIG      0.084700
     70 H13         7.1760    4.6370    6.4210 h2        1 LIG      0.084700
     71 C14         8.0180    3.0300    8.3410 c3        1 LIG      0.236100
     72 H14         7.2590    2.6110    7.8410 h2        1 LIG      0.074700
     73 C15         7.9000    2.8020    9.8780 c3        1 LIG      0.236100
     74 H15         7.0740    2.2890   10.1060 h2        1 LIG      0.074700
     75 C16         9.1270    3.2980   13.3160 c3        1 LIG      0.236100
     76 H16         8.4070    2.7640   13.7620 h2        1 LIG      0.074700
     77 C17        10.1420    3.8650   14.3410 c3        1 LIG      0.236100
     78 H17         9.9550    3.5410   15.2670 h2        1 LIG      0.074700
     79 C18        12.9710    5.7880   15.4600 c3        1 LIG      0.236100
     80 H18        12.8410    5.4720   16.4000 h2        1 LIG      0.074700
     81 C19        14.1790    6.7360   15.3500 c3        1 LIG      0.236100
     82 H19        14.5860    6.9220   16.2450 h2        1 LIG      0.074700
     83 C20        16.5980    8.8300   13.6040 c3        1 LIG      0.236100
     84 H20        17.1130    9.0740   14.4260 h2        1 LIG      0.074700
     85 C21        17.2050    9.4700   12.3320 c3        1 LIG      0.236100
     86 H21        17.9570   10.0900   12.5540 h2        1 LIG      0.074700
     87 C22        17.3360    9.9170    8.6730 c3        1 LIG      0.236100
     88 H22        18.0830   10.5840    8.6760 h2        1 LIG      0.074700
     89 C23        16.8500    9.6330    7.2430 c3        1 LIG      0.236100
     90 H23        17.3990   10.1170    6.5600 h2        1 LIG      0.074700
     91 C24        14.7380    8.1420    4.7130 c3        1 LIG      0.236100
     92 H24        15.2390    8.5760    3.9630 h2        1 LIG      0.074700
     93 C25        13.5630    7.2420    4.2000 c3        1 LIG      0.236100
     94 H25        13.5390    7.2110    3.2010 h2        1 LIG      0.074700
     95 C26        10.6750    5.0850    4.5480 c3        1 LIG      0.236100
     96 H26        10.5780    4.9410    3.5650 h2        1 LIG      0.074700
     97 C27         9.6040    4.3280    5.3450 c3        1 LIG      0.236100
     98 H27         8.9050    3.9380    4.7440 h2        1 LIG      0.074700
     99 C28         9.8810    1.8440    9.1030 c         1 LIG      0.805500
    100 C29         9.3610    1.5140   11.5160 c3        1 LIG      0.284400
    101 H28         9.9810    0.7470   11.4280 h2        1 LIG      0.084700
    102 H29         8.5140    1.1760   11.9020 h2        1 LIG      0.084700
    103 C30        11.2500    2.5130   12.7720 c         1 LIG      0.805500
    104 C31        12.6270    3.4230   14.6290 c3        1 LIG      0.284400
    105 H30        12.4080    3.2190   15.5740 h2        1 LIG      0.084700
    106 H31        13.2450    2.7220   14.3090 h2        1 LIG      0.084700
    107 C32        14.5690    4.8260   14.0780 c         1 LIG      0.805500
    108 C33        16.4750    6.3880   14.3190 c3        1 LIG      0.284400
    109 H32        16.8310    6.7140   15.1820 h2        1 LIG      0.084700
    110 H33        16.9930    5.5830   14.0620 h2        1 LIG      0.084700
    111 C34        17.3330    7.1410   12.1420 c         1 LIG      0.805500
    112 C35        18.4940    8.4290   10.3840 c3        1 LIG      0.284400
    113 H34        19.1300    9.1780   10.5040 h2        1 LIG      0.084700
    114 H35        19.0240    7.5960   10.3110 h2        1 LIG      0.084700
    115 C36        17.5800    7.6440    8.2200 c         1 LIG      0.805500
    116 C37        16.9160    7.4830    5.8450 c3        1 LIG      0.284400
    117 H36        17.3440    8.0350    5.1460 h2        1 LIG      0.084700
    118 H37        17.4220    6.6340    5.9150 h2        1 LIG      0.084700
    119 C38        15.0520    5.9210    5.4240 c         1 LIG      0.805500
    120 C39        13.1780    4.7290    4.3650 c3        1 LIG      0.284400
    121 H38        13.0080    4.7570    3.3880 h2        1 LIG      0.084700
    122 H39        13.7650    3.9540    4.5450 h2        1 LIG      0.084700
    123 C40        11.7050    3.4550    5.8450 c         1 LIG      0.805500
    124 C41         9.7580    2.1660    6.6640 c3        1 LIG      0.284400
    125 H40        10.4240    1.4330    6.6860 h2        1 LIG      0.084700
    126 H41         8.9950    1.8580    6.1110 h2        1 LIG      0.084700
@<TRIPOS>BOND
     1    1   43 2   
     2    2   47 2   
     3    3   51 2   
     4    4   55 2   
     5    5   59 2   
     6    6   63 2   
     7    7   67 2   
     8    8   99 2   
     9    9  103 2   
    10   10  107 2   
    11   11  111 2   
    12   12  115 2   
    13   13  119 2   
    14   14  123 2   
    15   15   43 1   
    16   15   68 1   
    17   15   71 1   
    18   16   43 1   
    19   16   44 1   
    20   16   73 1   
    21   17   44 1   
    22   17   47 1   
    23   17   75 1   
    24   18   47 1   
    25   18   48 1   
    26   18   77 1   
    27   19   48 1   
    28   19   51 1   
    29   19   79 1   
    30   20   51 1   
    31   20   52 1   
    32   20   81 1   
    33   21   52 1   
    34   21   55 1   
    35   21   83 1   
    36   22   55 1   
    37   22   56 1   
    38   22   85 1   
    39   23   56 1   
    40   23   59 1   
    41   23   87 1   
    42   24   59 1   
    43   24   60 1   
    44   24   89 1   
    45   25   60 1   
    46   25   63 1   
    47   25   91 1   
    48   26   63 1   
    49   26   64 1   
    50   26   93 1   
    51   27   64 1   
    52   27   67 1   
    53   27   95 1   
    54   28   67 1   
    55   28   68 1   
    56   28   97 1   
    57   29   71 1   
    58   29   99 1   
    59   29  124 1   
    60   30   73 1   
    61   30   99 1   
    62   30  100 1   
    63   31   75 1   
    64   31  100 1   
    65   31  103 1   
    66   32   77 1   
    67   32  103 1   
    68   32  104 1   
    69   33   79 1   
    70   33  104 1   
    71   33  107 1   
    72   34   81 1   
    73   34  107 1   
    74   34  108 1   
    75   35   83 1   
    76   35  108 1   
    77   35  111 1   
    78   36   85 1   
    79   36  111 1   
    80   36  112 1   
    81   37   87 1   
    82   37  112 1   
    83   37  115 1   
    84   38   89 1   
    85   38  115 1   
    86   38  116 1   
    87   39   91 1   
    88   39  116 1   
    89   39  119 1   
    90   40   93 1   
    91   40  119 1   
    92   40  120 1   
    93   41   95 1   
    94   41  120 1   
    95   41  123 1   
    96   42   97 1   
    97   42  123 1   
    98   42  124 1   
    99   44   45 1   
   100   44   46 1   
   101   48   49 1   
   102   48   50 1   
   103   52   53 1   
   104   52   54 1   
   105   56   57 1   
   106   56   58 1   
   107   60   61 1   
   108   60   62 1   
   109   64   65 1   
   110   64   66 1   
   111   68   69 1   
   112   68   70 1   
   113   71   72 1   
   114   71   73 1   
   115   73   74 1   
   116   75   76 1   
   117   75   77 1   
   118   77   78 1   
   119   79   80 1   
   120   79   81 1   
   121   81   82 1   
   122   83   84 1   
   123   83   85 1   
   124   85   86 1   
   125   87   88 1   
   126   87   89 1   
   127   89   90 1   
   128   91   92 1   
   129   91   93 1   
   130   93   94 1   
   131   95   96 1   
   132   95   97 1   
   133   97   98 1   
   134  100  101 1   
   135  100  102 1   
   136  104  105 1   
   137  104  106 1   
   138  108  109 1   
   139  108  110 1   
   140  112  113 1   
   141  112  114 1   
   142  116  117 1   
   143  116  118 1   
   144  120  121 1   
   145  120  122 1   
   146  124  125 1   
   147  124  126 1   
@<TRIPOS>SUBSTRUCTURE
     1 LIG         1 TEMP              0 ****  ****    0 ROOT
