@<TRIPOS>MOLECULE
phenol
   13    13     0     0     0
SMALL
USER_CHARGES

@<TRIPOS>ATOM
      1 C1          1.8851   -1.0363   -0.1124 C.ar      1 GST        -0.1657
      2 C2          0.8066   -0.4630    0.5610 C.ar      1 GST        -0.0944
      3 C3          2.9210   -1.6309    0.6081 C.ar      1 GST        -0.0944
      4 C4          0.7638   -0.4841    1.9551 C.ar      1 GST        -0.1854
      5 C5          2.8783   -1.6520    2.0022 C.ar      1 GST        -0.1854
      6 C6          1.7997   -1.0786    2.6757 C.ar      1 GST         0.1230
      7 O1          1.7593   -1.0981    4.0359 O.3       1 GST        -0.4979
      8 H1          1.9184   -1.0206   -1.1979 H         1 GST         0.1338
      9 H2         -0.0001    0.0001    0.0001 H         1 GST         0.1326
     10 H3          3.7605   -2.0773    0.0830 H         1 GST         0.1326
     11 H4         -0.0785   -0.0345    2.4737 H         1 GST         0.1415
     12 H5          3.6889   -2.1149    2.5584 H         1 GST         0.1415
     13 H6          0.9529   -0.6623    4.3548 H         1 GST         0.4183
@<TRIPOS>BOND
     1    1    2 ar
     2    1    3 ar
     3    2    4 ar
     4    3    5 ar
     5    4    6 ar
     6    5    6 ar
     7    6    7 1
     8    1    8 1
     9    2    9 1
    10    3   10 1
    11    4   11 1
    12    5   12 1
    13    7   13 1
