@<TRIPOS>MOLECULE

22 22 1
SMALL
USER_CHARGES
@<TRIPOS>ATOM
1	C1    18.0185     0.8884   -10.3891	C.3	1	noname	-0.0026
2	C2    17.1716     0.8752   -11.6935	C.3	1	noname	0.0008
3	C3    16.9243     2.3130   -12.2275	C.3	1	noname	-0.0206
4	C4    18.2571     3.0835   -12.4324	C.3	1	noname	0.0547
5	C5    19.1040     3.0951   -11.1311	C.3	1	noname	-0.0206
6	C6    19.3526     1.6597   -10.5960	C.3	1	noname	0.0008
7	N1    18.2752    -0.4814    -9.9221	N.4	1	noname	-0.0072
8	O1    17.9915     4.4208   -12.8505	O.3	1	noname	-0.3930
9	H1    17.4421     1.3886    -9.6045	H	1	noname	0.0977
10	H2    17.6839     0.2899   -12.4631	H	1	noname	0.0337
11	H3    16.2093     0.3966   -11.4990	H	1	noname	0.0337
12	H4    16.2890     2.8581   -11.5227	H	1	noname	0.0295
13	H5    16.3917     2.2565   -13.1787	H	1	noname	0.0295
14	H6    18.8298     2.5926   -13.2251	H	1	noname	0.0600
15	H7    20.0638     3.5759   -11.3287	H	1	noname	0.0295
16	H8    18.5890     3.6829   -10.3656	H	1	noname	0.0295
17	H9    19.8878     1.7212    -9.6469	H	1	noname	0.0337
18	H10    19.9881     1.1188   -11.3028	H	1	noname	0.0337
19	H11    17.3873    -0.9604    -9.7610	H	1	noname	0.2556
20	H12    18.8120    -0.9993   -10.6185	H	1	noname	0.2556
21	H13    18.8034    -0.4508    -9.0484	H	1	noname	0.2556
22	H14    18.8773     4.8036   -13.0281	H	1	noname	0.2104
@<TRIPOS>BOND
1	1	2	1
2	1	6	1
3	1	7	1
4	1	9	1
5	2	3	1
6	2	10	1
7	2	11	1
8	3	4	1
9	3	12	1
10	3	13	1
11	4	5	1
12	4	8	1
13	4	14	1
14	5	6	1
15	5	15	1
16	5	16	1
17	6	17	1
18	6	18	1
19	7	19	1
20	7	20	1
21	7	21	1
22	8	22	1
@<TRIPOS>SUBSTRUCTURE
1	noname	1
