@<TRIPOS>MOLECULE
24
   24     0     1     0     0
SMALL
bcc


@<TRIPOS>ATOM
      1 C1          2.0060  -15.5510    5.2130 DU        1 non     -0.099500
      2 C2          0.7290  -15.1890    4.7300 DU        1 non     -0.099500
      3 C3         -0.3960  -15.2300    5.5730 DU        1 non     -0.099500
      4 C4         -0.2730  -15.6450    6.9180 DU        1 non     -0.099500
      5 C5          1.0040  -16.0070    7.4020 DU        1 non     -0.099500
      6 C6          2.1290  -15.9660    6.5590 DU        1 non     -0.099500
      7 C7          3.1870  -15.5300    4.3190 DU        1 non     -0.099500
      8 N1          3.3110  -16.8360    3.6700 DU        1 non     -0.068000
      9 C8         -1.4540  -15.6660    7.8130 DU        1 non     -0.099500
     10 N2         -1.5770  -14.3600    8.4620 DU        1 non     -0.068000
     11 H1          0.6060  -14.8990    3.7570 DU        1 non      0.209286
     12 H2         -1.3040  -14.9480    5.1990 DU        1 non      0.209286
     13 H3          1.1270  -16.2970    8.3750 DU        1 non      0.209286
     14 H4          3.0380  -16.2480    6.9330 DU        1 non      0.209286
     15 H5          3.0860  -14.7570    3.5510 DU        1 non      0.209286
     16 H6          4.1030  -15.3210    4.8800 DU        1 non      0.209286
     17 H7          4.1220  -16.8360    3.0490 DU        1 non      0.209286
     18 H8          2.4650  -17.0280    3.1260 DU        1 non      0.209286
     19 H9          3.4260  -17.5620    4.3820 DU        1 non      0.209286
     20 H10        -1.3530  -16.4390    8.5800 DU        1 non      0.209286
     21 H11        -2.3690  -15.8750    7.2520 DU        1 non      0.209286
     22 H12        -2.3890  -14.3600    9.0830 DU        1 non      0.209286
     23 H13        -1.6930  -13.6340    7.7500 DU        1 non      0.209286
     24 H14        -0.7320  -14.1680    9.0060 DU        1 non      0.209286
@<TRIPOS>BOND
@<TRIPOS>SUBSTRUCTURE
     1 non         1 TEMP              0 ****  ****    0 ROOT
