@<TRIPOS>MOLECULE

24 24 1
SMALL
USER_CHARGES
@<TRIPOS>ATOM
1	C1     2.0063   -15.5514     5.2134	C.2	1	noname	-0.0288
2	C2     0.7293   -15.1890     4.7299	C.2	1	noname	-0.0347
3	C3    -0.3957   -15.2304     5.5733	C.2	1	noname	-0.0347
4	C4    -0.2732   -15.6447     6.9184	C.2	1	noname	-0.0288
5	C5     1.0038   -16.0070     7.4019	C.2	1	noname	-0.0347
6	C6     2.1288   -15.9656     6.5585	C.2	1	noname	-0.0347
7	C7     3.1868   -15.5296     4.3191	C.3	1	noname	0.0128
8	N1     3.3105   -16.8363     3.6695	N.4	1	noname	-0.0061
9	C8    -1.4537   -15.6665     7.8127	C.3	1	noname	0.0128
10	N2    -1.5774   -14.3597     8.4623	N.4	1	noname	-0.0061
11	H1     0.6064   -14.8991     3.7568	H	1	noname	0.0628
12	H2    -1.3045   -14.9479     5.1986	H	1	noname	0.0628
13	H3     1.1267   -16.2970     8.3750	H	1	noname	0.0628
14	H4     3.0376   -16.2481     6.9332	H	1	noname	0.0628
15	H5     3.0861   -14.7570     3.5515	H	1	noname	0.0995
16	H6     4.1026   -15.3211     4.8796	H	1	noname	0.0995
17	H7     4.1217   -16.8358     3.0488	H	1	noname	0.2557
18	H8     2.4648   -17.0281     3.1261	H	1	noname	0.2557
19	H9     3.4261   -17.5616     4.3822	H	1	noname	0.2557
20	H10    -1.3529   -16.4390     8.5803	H	1	noname	0.0995
21	H11    -2.3695   -15.8750     7.2522	H	1	noname	0.0995
22	H12    -2.3886   -14.3602     9.0830	H	1	noname	0.2557
23	H13    -1.6930   -13.6345     7.7496	H	1	noname	0.2557
24	H14    -0.7316   -14.1679     9.0057	H	1	noname	0.2557
@<TRIPOS>BOND
1	1	2	1
2	1	6	2
3	1	7	1
4	2	3	2
5	2	11	1
6	3	4	1
7	3	12	1
8	4	5	2
9	4	9	1
10	5	6	1
11	5	13	1
12	6	14	1
13	7	8	1
14	7	15	1
15	7	16	1
16	8	17	1
17	8	18	1
18	8	19	1
19	9	10	1
20	9	20	1
21	9	21	1
22	10	22	1
23	10	23	1
24	10	24	1
@<TRIPOS>SUBSTRUCTURE
1	noname	1
