@<TRIPOS>MOLECULE
20
   20     0     1     0     0
SMALL
bcc


@<TRIPOS>ATOM
      1 C1        -17.2940  -14.5920    5.0950 DU        1 non     -0.178600
      2 C2        -16.7810  -15.8350    5.8900 DU        1 non     -0.178600
      3 C3        -17.9960  -16.7740    6.1850 DU        1 non     -0.178600
      4 C4        -16.1340  -15.3800    7.2450 DU        1 non     -0.178600
      5 C5        -15.7390  -16.6240    5.0340 DU        1 non     -0.178600
      6 N1        -14.9730  -14.4880    7.0960 DU        1 non     -0.064000
      7 H1        -17.7710  -14.8960    4.1600 DU        1 non      0.139714
      8 H2        -18.0260  -14.0300    5.6800 DU        1 non      0.139714
      9 H3        -16.4710  -13.9210    4.8460 DU        1 non      0.139714
     10 H4        -18.7530  -16.2580    6.7790 DU        1 non      0.139714
     11 H5        -17.6790  -17.6610    6.7370 DU        1 non      0.139714
     12 H6        -18.4670  -17.1060    5.2560 DU        1 non      0.139714
     13 H7        -16.8700  -14.8500    7.8540 DU        1 non      0.139714
     14 H8        -15.7970  -16.2520    7.8120 DU        1 non      0.139714
     15 H9        -16.1840  -16.9690    4.0980 DU        1 non      0.139714
     16 H10       -15.3720  -17.4980    5.5760 DU        1 non      0.139714
     17 H11       -14.8830  -15.9950    4.7840 DU        1 non      0.139714
     18 H12       -14.6120  -14.2390    8.0190 DU        1 non      0.139714
     19 H13       -14.2370  -14.9580    6.5660 DU        1 non      0.139714
     20 H14       -15.2500  -13.6340    6.6050 DU        1 non      0.139714
@<TRIPOS>BOND
@<TRIPOS>SUBSTRUCTURE
     1 non         1 TEMP              0 ****  ****    0 ROOT
