@<TRIPOS>MOLECULE

20 19 1
SMALL
USER_CHARGES
@<TRIPOS>ATOM
1	C1   -17.2942   -14.5922     5.0945	C.3	1	noname	-0.0540
2	C2   -16.7814   -15.8353     5.8904	C.3	1	noname	0.0100
3	C3   -17.9964   -16.7740     6.1852	C.3	1	noname	-0.0540
4	C4   -16.1336   -15.3800     7.2453	C.3	1	noname	-0.0086
5	C5   -15.7394   -16.6237     5.0336	C.3	1	noname	-0.0540
6	N1   -14.9734   -14.4875     7.0957	N.4	1	noname	-0.0089
7	H1   -17.7712   -14.8962     4.1601	H	1	noname	0.0238
8	H2   -18.0257   -14.0305     5.6800	H	1	noname	0.0238
9	H3   -16.4708   -13.9209     4.8464	H	1	noname	0.0238
10	H4   -18.7533   -16.2575     6.7792	H	1	noname	0.0238
11	H5   -17.6790   -17.6612     6.7371	H	1	noname	0.0238
12	H6   -18.4669   -17.1063     5.2561	H	1	noname	0.0238
13	H7   -16.8700   -14.8502     7.8538	H	1	noname	0.0945
14	H8   -15.7975   -16.2515     7.8119	H	1	noname	0.0945
15	H9   -16.1844   -16.9694     4.0980	H	1	noname	0.0238
16	H10   -15.3719   -17.4978     5.5761	H	1	noname	0.0238
17	H11   -14.8834   -15.9948     4.7843	H	1	noname	0.0238
18	H12   -14.6121   -14.2387     8.0193	H	1	noname	0.2554
19	H13   -14.2369   -14.9583     6.5656	H	1	noname	0.2554
20	H14   -15.2502   -13.6344     6.6053	H	1	noname	0.2554
@<TRIPOS>BOND
1	1	2	1
2	1	7	1
3	1	8	1
4	1	9	1
5	2	3	1
6	2	4	1
7	2	5	1
8	3	10	1
9	3	11	1
10	3	12	1
11	4	6	1
12	4	13	1
13	4	14	1
14	5	15	1
15	5	16	1
16	5	17	1
17	6	18	1
18	6	19	1
19	6	20	1
@<TRIPOS>SUBSTRUCTURE
1	noname	1
