@<TRIPOS>MOLECULE

24 24 1
SMALL
USER_CHARGES
@<TRIPOS>ATOM
1	C1    16.9368    17.9959   -11.4381	C.3	1	noname	0.0050
2	C2    16.2457    19.1954   -12.1396	C.3	1	noname	-0.0463
3	C3    17.2690    20.0586   -12.9208	C.3	1	noname	-0.0463
4	C4    18.4239    20.5369   -12.0010	C.3	1	noname	0.0050
5	C5    19.1246    19.3397   -11.2941	C.3	1	noname	0.0498
6	C6    18.0961    18.4664   -10.5116	C.3	1	noname	0.0498
7	N1    18.7521    17.3043    -9.8839	N.4	1	noname	-0.0025
8	N2    20.1955    19.8270   -10.4051	N.4	1	noname	-0.0025
9	H1    16.1929    17.4557   -10.8490	H	1	noname	0.0339
10	H2    17.3251    17.3129   -12.2001	H	1	noname	0.0339
11	H3    15.4832    18.8248   -12.8293	H	1	noname	0.0269
12	H4    15.7456    19.8165   -11.3901	H	1	noname	0.0269
13	H5    17.6813    19.4718   -13.7475	H	1	noname	0.0269
14	H6    16.7598    20.9261   -13.3481	H	1	noname	0.0269
15	H7    18.0210    21.2256   -11.2519	H	1	noname	0.0339
16	H8    19.1518    21.0833   -12.6043	H	1	noname	0.0339
17	H9    19.6053    18.7223   -12.0592	H	1	noname	0.1050
18	H10    17.6673    19.0635    -9.7009	H	1	noname	0.1050
19	H11    18.0639    16.7682    -9.3502	H	1	noname	0.2558
20	H12    19.4842    17.6308    -9.2483	H	1	noname	0.2558
21	H13    19.1700    16.7036   -10.5977	H	1	noname	0.2558
22	H14    20.8732    20.3672   -10.9480	H	1	noname	0.2558
23	H15    19.8044    20.4173    -9.6679	H	1	noname	0.2558
24	H16    20.6721    19.0284    -9.9792	H	1	noname	0.2558
@<TRIPOS>BOND
1	1	2	1
2	1	6	1
3	1	9	1
4	1	10	1
5	2	3	1
6	2	11	1
7	2	12	1
8	3	4	1
9	3	13	1
10	3	14	1
11	4	5	1
12	4	15	1
13	4	16	1
14	5	6	1
15	5	8	1
16	5	17	1
17	6	7	1
18	6	18	1
19	7	19	1
20	7	20	1
21	7	21	1
22	8	22	1
23	8	23	1
24	8	24	1
@<TRIPOS>SUBSTRUCTURE
1	noname	1
