@<TRIPOS>MOLECULE
27
   27     0     1     0     0
SMALL
bcc


@<TRIPOS>ATOM
      1 C1         16.9600   20.1220    7.2380 DU        1 non     -0.154000
      2 C2         18.5040   20.2450    7.0610 DU        1 non     -0.154000
      3 C3         19.3230   18.9190    7.0070 DU        1 non     -0.154000
      4 C4         16.1160   19.3800    6.1600 DU        1 non     -0.154000
      5 C5         16.5870   19.5350    4.6820 DU        1 non     -0.154000
      6 C6         17.3470   18.3230    4.0760 DU        1 non     -0.154000
      7 C7         18.3440   17.5380    4.9740 DU        1 non     -0.154000
      8 C8         19.5410   18.3290    5.5760 DU        1 non     -0.154000
      9 N1         20.6540   19.1420    7.6150 DU        1 non     -0.077000
     10 H1         16.5710   21.1410    7.3140 DU        1 non      0.128278
     11 H2         16.7590   19.6450    8.2020 DU        1 non      0.128278
     12 H3         18.7380   20.8640    6.1920 DU        1 non      0.128278
     13 H4         18.8420   20.8200    7.9280 DU        1 non      0.128278
     14 H5         18.8370   18.1720    7.6380 DU        1 non      0.128278
     15 H6         16.0400   18.3250    6.4270 DU        1 non      0.128278
     16 H7         15.0940   19.7680    6.2290 DU        1 non      0.128278
     17 H8         17.1960   20.4320    4.5670 DU        1 non      0.128278
     18 H9         15.7010   19.7010    4.0600 DU        1 non      0.128278
     19 H10        16.6020   17.6040    3.7280 DU        1 non      0.128278
     20 H11        17.8780   18.6720    3.1870 DU        1 non      0.128278
     21 H12        17.8050   17.0170    5.7680 DU        1 non      0.128278
     22 H13        18.7590   16.7500    4.3360 DU        1 non      0.128278
     23 H14        20.3640   17.6120    5.6500 DU        1 non      0.128278
     24 H15        19.8780   19.1060    4.8830 DU        1 non      0.128278
     25 H16        21.1760   19.8370    7.0780 DU        1 non      0.128278
     26 H17        20.5440   19.4700    8.5770 DU        1 non      0.128278
     27 H18        21.1800   18.2650    7.6260 DU        1 non      0.128278
@<TRIPOS>BOND
@<TRIPOS>SUBSTRUCTURE
     1 non         1 TEMP              0 ****  ****    0 ROOT
