@<TRIPOS>MOLECULE

27 27 1
SMALL
USER_CHARGES
@<TRIPOS>ATOM
1	C1    16.9598    20.1217     7.2376	C.3	1	noname	-0.0469
2	C2    18.5041    20.2453     7.0609	C.3	1	noname	-0.0016
3	C3    19.3234    18.9187     7.0073	C.3	1	noname	-0.0028
4	C4    16.1163    19.3797     6.1598	C.3	1	noname	-0.0530
5	C5    16.5870    19.5354     4.6824	C.3	1	noname	-0.0533
6	C6    17.3474    18.3229     4.0762	C.3	1	noname	-0.0530
7	C7    18.3441    17.5376     4.9738	C.3	1	noname	-0.0469
8	C8    19.5408    18.3291     5.5760	C.3	1	noname	-0.0016
9	N1    20.6535    19.1416     7.6149	N.4	1	noname	-0.0072
10	H1    16.5707    21.1413     7.3142	H	1	noname	0.0269
11	H2    16.7590    19.6451     8.2020	H	1	noname	0.0269
12	H3    18.7378    20.8637     6.1920	H	1	noname	0.0336
13	H4    18.8424    20.8202     7.9283	H	1	noname	0.0336
14	H5    18.8368    18.1725     7.6385	H	1	noname	0.0977
15	H6    16.0395    18.3246     6.4273	H	1	noname	0.0266
16	H7    15.0937    19.7678     6.2291	H	1	noname	0.0266
17	H8    17.1958    20.4323     4.5666	H	1	noname	0.0266
18	H9    15.7013    19.7013     4.0597	H	1	noname	0.0266
19	H10    16.6016    17.6044     3.7282	H	1	noname	0.0266
20	H11    17.8782    18.6719     3.1866	H	1	noname	0.0266
21	H12    17.8047    17.0171     5.7683	H	1	noname	0.0269
22	H13    18.7589    16.7504     4.3357	H	1	noname	0.0269
23	H14    20.3639    17.6121     5.6502	H	1	noname	0.0336
24	H15    19.8776    19.1061     4.8833	H	1	noname	0.0336
25	H16    21.1757    19.8372     7.0778	H	1	noname	0.2556
26	H17    20.5442    19.4701     8.5771	H	1	noname	0.2556
27	H18    21.1795    18.2648     7.6258	H	1	noname	0.2556
@<TRIPOS>BOND
1	1	2	1
2	1	4	1
3	1	10	1
4	1	11	1
5	2	3	1
6	2	12	1
7	2	13	1
8	8	3	1
9	3	9	1
10	3	14	1
11	4	5	1
12	4	15	1
13	4	16	1
14	5	6	1
15	5	17	1
16	5	18	1
17	6	7	1
18	6	19	1
19	6	20	1
20	7	8	1
21	7	21	1
22	7	22	1
23	8	23	1
24	8	24	1
25	9	25	1
26	9	26	1
27	9	27	1
@<TRIPOS>SUBSTRUCTURE
1	noname	1
