@<TRIPOS>MOLECULE
31
   31     0     1     0     0
SMALL
bcc


@<TRIPOS>ATOM
      1 C1        -15.8190  -14.9890   21.9430 DU        1 non     -0.146500
      2 C2        -16.1660  -16.0910   23.0080 DU        1 non     -0.146500
      3 C3        -15.2650  -15.8510   24.2790 DU        1 non     -0.146500
      4 C4        -15.8970  -14.5670   24.8870 DU        1 non     -0.146500
      5 C5        -16.4210  -13.7090   22.5790 DU        1 non     -0.146500
      6 C6        -17.0580  -14.2740   23.8860 DU        1 non     -0.146500
      7 C7        -17.6090  -15.6790   23.4870 DU        1 non     -0.146500
      8 C8        -18.7470  -15.6600   22.3930 DU        1 non     -0.146500
      9 C9        -18.2330  -16.5110   24.6730 DU        1 non     -0.146500
     10 C10       -16.0420  -17.5350   22.4460 DU        1 non     -0.146500
     11 N1        -13.8170  -15.7150   24.0270 DU        1 non     -0.059000
     12 H1        -15.3650  -16.6840   24.9790 DU        1 non      0.126250
     13 H2        -16.2770  -15.2020   20.9730 DU        1 non      0.126250
     14 H3        -14.7460  -14.8890   21.7680 DU        1 non      0.126250
     15 H4        -16.2830  -14.7460   25.8960 DU        1 non      0.126250
     16 H5        -15.1860  -13.7370   24.9490 DU        1 non      0.126250
     17 H6        -17.1740  -13.2490   21.9340 DU        1 non      0.126250
     18 H7        -15.6510  -12.9580   22.7780 DU        1 non      0.126250
     19 H8        -17.8160  -13.6060   24.3060 DU        1 non      0.126250
     20 H9        -19.0060  -16.6800   22.0970 DU        1 non      0.126250
     21 H10       -19.6460  -15.1880   22.7950 DU        1 non      0.126250
     22 H11       -18.4940  -15.1230   21.4830 DU        1 non      0.126250
     23 H12       -19.1480  -16.0310   25.0290 DU        1 non      0.126250
     24 H13       -17.5840  -16.6270   25.5360 DU        1 non      0.126250
     25 H14       -18.4920  -17.5170   24.3360 DU        1 non      0.126250
     26 H15       -15.0130  -17.7300   22.1380 DU        1 non      0.126250
     27 H16       -16.6940  -17.6700   21.5810 DU        1 non      0.126250
     28 H17       -16.3200  -18.2680   23.2060 DU        1 non      0.126250
     29 H18       -13.4690  -16.5540   23.5570 DU        1 non      0.126250
     30 H19       -13.6380  -14.8960   23.4410 DU        1 non      0.126250
     31 H20       -13.3280  -15.6010   24.9170 DU        1 non      0.126250
@<TRIPOS>BOND
@<TRIPOS>SUBSTRUCTURE
     1 non         1 TEMP              0 ****  ****    0 ROOT
