@<TRIPOS>MOLECULE

21 21 1
SMALL
USER_CHARGES
@<TRIPOS>ATOM
1	C1   -17.9639     1.9389   -10.0303	C.2	1	noname	0.0112
2	C2   -18.1026     2.3417   -11.3716	C.2	1	noname	-0.0010
3	C3   -16.9792     2.3755   -12.2163	C.2	1	noname	-0.0166
4	C4   -15.7005     2.0132   -11.7311	C.2	1	noname	-0.0198
5	C5   -15.5771     1.5974   -10.3844	C.2	1	noname	-0.0166
6	C6   -16.6998     1.5633    -9.5387	C.2	1	noname	-0.0010
7	N1   -19.0775     1.9092    -9.1906	N.4	1	noname	0.0191
8	C7   -14.5198     2.0358   -12.6252	C.3	1	noname	0.0128
9	N2   -14.3918     0.7308   -13.2774	N.4	1	noname	-0.0061
10	H1   -19.0185     2.6125   -11.7382	H	1	noname	0.0694
11	H2   -17.1045     2.6637   -13.1897	H	1	noname	0.0630
12	H3   -14.6695     1.3126   -10.0083	H	1	noname	0.0630
13	H4   -16.5907     1.2654    -8.5662	H	1	noname	0.0694
14	H5   -19.5161     0.9895    -9.2455	H	1	noname	0.2624
15	H6   -18.7869     2.0913    -8.2292	H	1	noname	0.2624
16	H7   -19.7459     2.6234    -9.4822	H	1	noname	0.2624
17	H8   -14.6188     2.8086   -13.3905	H	1	noname	0.0995
18	H9   -13.6054     2.2463   -12.0663	H	1	noname	0.0995
19	H10   -13.5799     0.7353   -13.8968	H	1	noname	0.2557
20	H11   -15.2336     0.5367   -13.8226	H	1	noname	0.2557
21	H12   -14.2741     0.0042   -12.5690	H	1	noname	0.2557
@<TRIPOS>BOND
1	1	2	1
2	1	6	2
3	1	7	1
4	2	3	2
5	2	10	1
6	3	4	1
7	3	11	1
8	4	5	2
9	4	8	1
10	5	6	1
11	5	12	1
12	6	13	1
13	7	14	1
14	7	15	1
15	7	16	1
16	8	9	1
17	8	17	1
18	8	18	1
19	9	19	1
20	9	20	1
21	9	21	1
@<TRIPOS>SUBSTRUCTURE
1	noname	1
