@<TRIPOS>MOLECULE

31 32 1
SMALL
USER_CHARGES
@<TRIPOS>ATOM
1	C1   -15.8185   -14.9895    21.9427	C.3	1	noname	-0.0406
2	C2   -16.1660   -16.0908    23.0075	C.3	1	noname	0.0238
3	C3   -15.2653   -15.8506    24.2790	C.3	1	noname	0.0036
4	C4   -15.8972   -14.5671    24.8872	C.3	1	noname	0.0023
5	C5   -16.4205   -13.7094    22.5786	C.3	1	noname	-0.0488
6	C6   -17.0575   -14.2742    23.8860	C.3	1	noname	-0.0290
7	C7   -17.6087   -15.6794    23.4870	C.3	1	noname	-0.0205
8	C8   -18.7472   -15.6604    22.3933	C.3	1	noname	-0.0588
9	C9   -18.2330   -16.5110    24.6729	C.3	1	noname	-0.0588
10	C10   -16.0424   -17.5349    22.4461	C.3	1	noname	-0.0527
11	N1   -13.8173   -15.7148    24.0271	N.4	1	noname	-0.0068
12	H1   -15.3649   -16.6844    24.9793	H	1	noname	0.0983
13	H2   -16.2775   -15.2019    20.9732	H	1	noname	0.0275
14	H3   -14.7463   -14.8893    21.7679	H	1	noname	0.0275
15	H4   -16.2828   -14.7460    25.8956	H	1	noname	0.0339
16	H5   -15.1858   -13.7374    24.9494	H	1	noname	0.0339
17	H6   -17.1739   -13.2495    21.9340	H	1	noname	0.0270
18	H7   -15.6511   -12.9578    22.7783	H	1	noname	0.0270
19	H8   -17.8155   -13.6060    24.3061	H	1	noname	0.0311
20	H9   -19.0062   -16.6797    22.0972	H	1	noname	0.0236
21	H10   -19.6461   -15.1880    22.7952	H	1	noname	0.0236
22	H11   -18.4935   -15.1228    21.4828	H	1	noname	0.0236
23	H12   -19.1477   -16.0314    25.0286	H	1	noname	0.0236
24	H13   -17.5838   -16.6265    25.5361	H	1	noname	0.0236
25	H14   -18.4916   -17.5172    24.3360	H	1	noname	0.0236
26	H15   -15.0132   -17.7298    22.1381	H	1	noname	0.0239
27	H16   -16.6939   -17.6702    21.5810	H	1	noname	0.0239
28	H17   -16.3199   -18.2679    23.2059	H	1	noname	0.0239
29	H18   -13.4690   -16.5540    23.5570	H	1	noname	0.2556
30	H19   -13.6377   -14.8963    23.4414	H	1	noname	0.2556
31	H20   -13.3277   -15.6006    24.9173	H	1	noname	0.2556
@<TRIPOS>BOND
1	1	2	1
2	1	5	1
3	1	13	1
4	1	14	1
5	2	3	1
6	7	2	1
7	2	10	1
8	3	4	1
9	3	11	1
10	3	12	1
11	6	4	1
12	4	15	1
13	4	16	1
14	5	6	1
15	5	17	1
16	5	18	1
17	6	7	1
18	6	19	1
19	7	8	1
20	7	9	1
21	8	20	1
22	8	21	1
23	8	22	1
24	9	23	1
25	9	24	1
26	9	25	1
27	10	26	1
28	10	27	1
29	10	28	1
30	11	29	1
31	11	30	1
32	11	31	1
@<TRIPOS>SUBSTRUCTURE
1	noname	1
