@<TRIPOS>MOLECULE
24
   24     0     1     0     0
SMALL
bcc


@<TRIPOS>ATOM
      1 C1         -0.0320   19.9060  -11.7720 DU        1 non     -0.097625
      2 C2         -1.1600   19.3320  -11.1430 DU        1 non     -0.097625
      3 C3         -1.0080   18.5360   -9.9940 DU        1 non     -0.097625
      4 C4          0.2710   18.3010   -9.4610 DU        1 non     -0.097625
      5 C5          1.4160   18.8630  -10.0700 DU        1 non     -0.097625
      6 C6          1.2500   19.6530  -11.2310 DU        1 non     -0.097625
      7 C7         -0.1800   20.7320  -12.9950 DU        1 non     -0.097625
      8 C8          2.7720   18.6060   -9.5250 DU        1 non     -0.097625
      9 N1         -0.1030   19.8650  -14.1740 DU        1 non     -0.068000
     10 N2          3.3210   17.4000  -10.1480 DU        1 non     -0.068000
     11 H1         -2.0990   19.4850  -11.5210 DU        1 non      0.208286
     12 H2         -1.8310   18.1220   -9.5480 DU        1 non      0.208286
     13 H3          0.3620   17.7130   -8.6280 DU        1 non      0.208286
     14 H4          2.0750   20.0420  -11.6950 DU        1 non      0.208286
     15 H5         -1.1380   21.2560  -13.0010 DU        1 non      0.208286
     16 H6          0.6110   21.4830  -13.0590 DU        1 non      0.208286
     17 H7          2.7400   18.4650   -8.4420 DU        1 non      0.208286
     18 H8          3.4420   19.4450   -9.7310 DU        1 non      0.208286
     19 H9         -0.2080   20.4260  -15.0230 DU        1 non      0.208286
     20 H10        -0.8510   19.1680  -14.1320 DU        1 non      0.208286
     21 H11         0.8040   19.3910  -14.1900 DU        1 non      0.208286
     22 H12         4.2550   17.2130   -9.7760 DU        1 non      0.208286
     23 H13         3.3800   17.5360  -11.1610 DU        1 non      0.208286
     24 H14         2.7090   16.6050   -9.9470 DU        1 non      0.208286
@<TRIPOS>BOND
@<TRIPOS>SUBSTRUCTURE
     1 non         1 TEMP              0 ****  ****    0 ROOT
