@<TRIPOS>MOLECULE
21
   21     0     1     0     0
SMALL
bcc


@<TRIPOS>ATOM
      1 C1         17.3710  -15.0630    6.4430 DU        1 non     -0.153833
      2 C2         18.8330  -14.5360    6.5370 DU        1 non     -0.153833
      3 C3         19.8450  -15.6930    6.7580 DU        1 non     -0.153833
      4 C4         19.7090  -16.7890    5.6690 DU        1 non     -0.153833
      5 C5         18.2530  -17.3170    5.5750 DU        1 non     -0.153833
      6 C6         17.2380  -16.1640    5.3510 DU        1 non     -0.153833
      7 N1         16.4330  -13.9590    6.1900 DU        1 non     -0.072000
      8 H1         17.0940  -15.4960    7.4110 DU        1 non      0.142571
      9 H2         19.0930  -14.0010    5.6170 DU        1 non      0.142571
     10 H3         18.9130  -13.8300    7.3680 DU        1 non      0.142571
     11 H4         19.6810  -16.1380    7.7450 DU        1 non      0.142571
     12 H5         20.8610  -15.2940    6.7400 DU        1 non      0.142571
     13 H6         20.3810  -17.6180    5.9020 DU        1 non      0.142571
     14 H7         20.0100  -16.3800    4.7010 DU        1 non      0.142571
     15 H8         18.1820  -18.0280    4.7490 DU        1 non      0.142571
     16 H9         18.0010  -17.8540    6.4950 DU        1 non      0.142571
     17 H10        16.2240  -16.5740    5.3690 DU        1 non      0.142571
     18 H11        17.4030  -15.7260    4.3610 DU        1 non      0.142571
     19 H12        16.5110  -13.2650    6.9370 DU        1 non      0.142571
     20 H13        16.6410  -13.5120    5.2970 DU        1 non      0.142571
     21 H14        15.4760  -14.3210    6.1680 DU        1 non      0.142571
@<TRIPOS>BOND
@<TRIPOS>SUBSTRUCTURE
     1 non         1 TEMP              0 ****  ****    0 ROOT
