@<TRIPOS>MOLECULE

21 21 1
SMALL
USER_CHARGES
@<TRIPOS>ATOM
1	C1    17.3714   -15.0634     6.4434	C.3	1	noname	-0.0028
2	C2    18.8329   -14.5363     6.5367	C.3	1	noname	-0.0016
3	C3    19.8446   -15.6929     6.7580	C.3	1	noname	-0.0469
4	C4    19.7085   -16.7891     5.6689	C.3	1	noname	-0.0527
5	C5    18.2530   -17.3173     5.5748	C.3	1	noname	-0.0469
6	C6    17.2380   -16.1641     5.3511	C.3	1	noname	-0.0016
7	N1    16.4327   -13.9594     6.1903	N.4	1	noname	-0.0072
8	H1    17.0937   -15.4960     7.4109	H	1	noname	0.0977
9	H2    19.0932   -14.0011     5.6173	H	1	noname	0.0336
10	H3    18.9130   -13.8297     7.3679	H	1	noname	0.0336
11	H4    19.6813   -16.1381     7.7445	H	1	noname	0.0269
12	H5    20.8607   -15.2937     6.7404	H	1	noname	0.0269
13	H6    20.3815   -17.6183     5.9022	H	1	noname	0.0266
14	H7    20.0097   -16.3795     4.7014	H	1	noname	0.0266
15	H8    18.1818   -18.0280     4.7490	H	1	noname	0.0269
16	H9    18.0006   -17.8535     6.4950	H	1	noname	0.0269
17	H10    16.2241   -16.5742     5.3690	H	1	noname	0.0336
18	H11    17.4034   -15.7258     4.3611	H	1	noname	0.0336
19	H12    16.5107   -13.2649     6.9371	H	1	noname	0.2556
20	H13    16.6406   -13.5123     5.2968	H	1	noname	0.2556
21	H14    15.4762   -14.3209     6.1680	H	1	noname	0.2556
@<TRIPOS>BOND
1	1	2	1
2	1	6	1
3	1	7	1
4	1	8	1
5	2	3	1
6	2	9	1
7	2	10	1
8	3	4	1
9	3	11	1
10	3	12	1
11	4	5	1
12	4	13	1
13	4	14	1
14	5	6	1
15	5	15	1
16	5	16	1
17	6	17	1
18	6	18	1
19	7	19	1
20	7	20	1
21	7	21	1
@<TRIPOS>SUBSTRUCTURE
1	noname	1
