@<TRIPOS>MOLECULE

22 23 1
SMALL
USER_CHARGES
@<TRIPOS>ATOM
1	C1   -17.6807     0.1744     5.6983	C.3	1	noname	-0.0496
2	C2   -16.2006     0.1108     5.2410	C.3	1	noname	-0.0437
3	C3   -17.6644     1.3735     6.6857	C.3	1	noname	-0.0345
4	C4   -17.4819     2.7137     5.9156	C.3	1	noname	0.0015
5	C5   -15.9858     2.6575     5.4913	C.3	1	noname	0.0004
6	C6   -15.5488     1.2710     6.0500	C.3	1	noname	0.0102
7	C7   -16.3078     1.1995     7.3879	C.3	1	noname	-0.0409
8	N1   -15.1926     3.7548     6.0756	N.4	1	noname	-0.0070
9	H1   -17.9706    -0.7458     6.2133	H	1	noname	0.0269
10	H2   -18.3629     0.3426     4.8607	H	1	noname	0.0269
11	H3   -15.7523    -0.8496     5.5126	H	1	noname	0.0272
12	H4   -16.1005     0.2591     4.1629	H	1	noname	0.0272
13	H5   -18.5173     1.3802     7.3684	H	1	noname	0.0305
14	H6   -17.6887     3.5646     6.5716	H	1	noname	0.0339
15	H7   -18.1456     2.7720     5.0477	H	1	noname	0.0339
16	H8   -15.8765     2.6998     4.4021	H	1	noname	0.0980
17	H9   -14.4644     1.1632     6.1486	H	1	noname	0.0372
18	H10   -16.1957     0.2395     7.9052	H	1	noname	0.0275
19	H11   -16.0660     2.0139     8.0789	H	1	noname	0.0275
20	H12   -15.5327     4.6501     5.7209	H	1	noname	0.2556
21	H13   -15.2742     3.7460     7.0936	H	1	noname	0.2556
22	H14   -14.2108     3.6378     5.8177	H	1	noname	0.2556
@<TRIPOS>BOND
1	1	2	1
2	1	3	1
3	1	9	1
4	1	10	1
5	2	6	1
6	2	11	1
7	2	12	1
8	3	4	1
9	7	3	1
10	3	13	1
11	4	5	1
12	4	14	1
13	4	15	1
14	5	6	1
15	5	8	1
16	5	16	1
17	6	7	1
18	6	17	1
19	7	18	1
20	7	19	1
21	8	20	1
22	8	21	1
23	8	22	1
@<TRIPOS>SUBSTRUCTURE
1	noname	1
