@<TRIPOS>MOLECULE

41 40 1
SMALL
USER_CHARGES
@<TRIPOS>ATOM
1	C1    18.3954   -17.7420   -18.1980	C.3	1	noname	-0.0654
2	C2    18.5669   -16.6597   -17.1058	C.3	1	noname	-0.0561
3	C3    18.2588   -17.2028   -15.6833	C.3	1	noname	-0.0535
4	C4    18.4240   -16.1348   -14.5704	C.3	1	noname	-0.0533
5	C5    18.1153   -16.6795   -13.1461	C.3	1	noname	-0.0533
6	C6    18.2904   -15.5865   -12.0606	C.3	1	noname	-0.0530
7	C7    17.9917   -16.0888   -10.6229	C.3	1	noname	-0.0472
8	C8    18.1818   -14.9583    -9.5789	C.3	1	noname	-0.0045
9	C9    17.8961   -15.4000    -8.1102	C.3	1	noname	-0.0107
10	N1    18.0585   -14.3509    -7.0178	N.4	1	noname	0.0063
11	C10    17.7340   -14.9915    -5.6853	C.3	1	noname	-0.0215
12	C11    17.1109   -13.1914    -7.2249	C.3	1	noname	-0.0215
13	C12    19.4784   -13.8357    -6.9581	C.3	1	noname	-0.0215
14	H1    18.6203   -17.3225   -19.1808	H	1	noname	0.0230
15	H2    19.0741   -18.5778   -18.0126	H	1	noname	0.0230
16	H3    17.3681   -18.1135   -18.2049	H	1	noname	0.0230
17	H4    19.5952   -16.2879   -17.1437	H	1	noname	0.0264
18	H5    17.8969   -15.8257   -17.3351	H	1	noname	0.0264
19	H6    18.9311   -18.0395   -15.4720	H	1	noname	0.0266
20	H7    17.2309   -17.5768   -15.6636	H	1	noname	0.0266
21	H8    17.7522   -15.2980   -14.7820	H	1	noname	0.0266
22	H9    19.4516   -15.7605   -14.5905	H	1	noname	0.0266
23	H10    17.0871   -17.0513   -13.1162	H	1	noname	0.0266
24	H11    18.7869   -17.5139   -12.9246	H	1	noname	0.0266
25	H12    17.6188   -14.7519   -12.2872	H	1	noname	0.0266
26	H13    19.3198   -15.2149   -12.0956	H	1	noname	0.0266
27	H14    16.9629   -16.4556   -10.5773	H	1	noname	0.0269
28	H15    18.6631   -16.9184   -10.3857	H	1	noname	0.0269
29	H16    17.5127   -14.1374    -9.8461	H	1	noname	0.0332
30	H17    19.2106   -14.5995    -9.6548	H	1	noname	0.0332
31	H18    18.5572   -16.2487    -7.9006	H	1	noname	0.0940
32	H19    16.8719   -15.7901    -8.0905	H	1	noname	0.0940
33	H20    18.4007   -15.8314    -5.4701	H	1	noname	0.0902
34	H21    16.7085   -15.3709    -5.6607	H	1	noname	0.0902
35	H22    17.8348   -14.2792    -4.8597	H	1	noname	0.0902
36	H23    16.0789   -13.5363    -7.3374	H	1	noname	0.0902
37	H24    17.1354   -12.4936    -6.3833	H	1	noname	0.0902
38	H25    17.3647   -12.6130    -8.1150	H	1	noname	0.0902
39	H26    19.6329   -13.1732    -6.1019	H	1	noname	0.0902
40	H27    20.1962   -14.6568    -6.8735	H	1	noname	0.0902
41	H28    19.7394   -13.2592    -7.8474	H	1	noname	0.0902
@<TRIPOS>BOND
1	1	2	1
2	1	14	1
3	1	15	1
4	1	16	1
5	2	3	1
6	2	17	1
7	2	18	1
8	3	4	1
9	3	19	1
10	3	20	1
11	4	5	1
12	4	21	1
13	4	22	1
14	5	6	1
15	5	23	1
16	5	24	1
17	6	7	1
18	6	25	1
19	6	26	1
20	7	8	1
21	7	27	1
22	7	28	1
23	8	9	1
24	8	29	1
25	8	30	1
26	9	10	1
27	9	31	1
28	9	32	1
29	10	11	1
30	10	12	1
31	10	13	1
32	11	33	1
33	11	34	1
34	11	35	1
35	12	36	1
36	12	37	1
37	12	38	1
38	13	39	1
39	13	40	1
40	13	41	1
@<TRIPOS>SUBSTRUCTURE
1	noname	1
