@<TRIPOS>MOLECULE

24 24 1
SMALL
USER_CHARGES
@<TRIPOS>ATOM
1	C1    -0.0317    19.9058   -11.7720	C.2	1	noname	-0.0244
2	C2    -1.1600    19.3317   -11.1429	C.2	1	noname	-0.0391
3	C3    -1.0078    18.5364    -9.9942	C.2	1	noname	-0.0497
4	C4     0.2709    18.3014    -9.4606	C.2	1	noname	-0.0391
5	C5     1.4163    18.8632   -10.0697	C.2	1	noname	-0.0244
6	C6     1.2495    19.6527   -11.2306	C.2	1	noname	-0.0199
7	C7    -0.1803    20.7316   -12.9951	C.3	1	noname	0.0128
8	C8     2.7717    18.6062    -9.5247	C.3	1	noname	0.0128
9	N1    -0.1032    19.8651   -14.1741	N.4	1	noname	-0.0061
10	N2     3.3211    17.3996   -10.1483	N.4	1	noname	-0.0061
11	H1    -2.0990    19.4848   -11.5213	H	1	noname	0.0628
12	H2    -1.8306    18.1222    -9.5479	H	1	noname	0.0622
13	H3     0.3623    17.7127    -8.6278	H	1	noname	0.0628
14	H4     2.0754    20.0420   -11.6946	H	1	noname	0.0633
15	H5    -1.1382    21.2565   -13.0009	H	1	noname	0.0995
16	H6     0.6108    21.4827   -13.0588	H	1	noname	0.0995
17	H7     2.7395    18.4646    -8.4421	H	1	noname	0.0995
18	H8     3.4417    19.4445    -9.7307	H	1	noname	0.0995
19	H9    -0.2078    20.4263   -15.0227	H	1	noname	0.2557
20	H10    -0.8508    19.1677   -14.1323	H	1	noname	0.2557
21	H11     0.8037    19.3907   -14.1900	H	1	noname	0.2557
22	H12     4.2552    17.2130    -9.7759	H	1	noname	0.2557
23	H13     3.3800    17.5357   -11.1612	H	1	noname	0.2557
24	H14     2.7089    16.6047    -9.9474	H	1	noname	0.2557
@<TRIPOS>BOND
1	1	2	1
2	1	6	2
3	1	7	1
4	2	3	2
5	2	11	1
6	3	4	1
7	3	12	1
8	4	5	2
9	4	13	1
10	5	6	1
11	5	8	1
12	6	14	1
13	7	9	1
14	7	15	1
15	7	16	1
16	8	10	1
17	8	17	1
18	8	18	1
19	9	19	1
20	9	20	1
21	9	21	1
22	10	22	1
23	10	23	1
24	10	24	1
@<TRIPOS>SUBSTRUCTURE
1	noname	1
