@<TRIPOS>MOLECULE
30
   30     0     1     0     0
SMALL
bcc


@<TRIPOS>ATOM
      1 C1        -15.2560   19.6230    4.5010 DU        1 non     -0.117900
      2 C2        -14.9070   18.5220    5.5560 DU        1 non     -0.117900
      3 C3        -15.9000   17.3240    5.4080 DU        1 non     -0.117900
      4 C4        -17.3660   17.8220    5.6360 DU        1 non     -0.117900
      5 C5        -16.7190   20.1250    4.7270 DU        1 non     -0.117900
      6 C6        -17.7110   18.9250    4.5810 DU        1 non     -0.117900
      7 C7        -16.8420   20.7280    6.1620 DU        1 non     -0.117900
      8 C8        -15.0290   19.1250    6.9910 DU        1 non     -0.117900
      9 C9        -17.4880   18.4270    7.0720 DU        1 non     -0.117900
     10 C10       -16.4930   19.6270    7.2190 DU        1 non     -0.117900
     11 N1        -16.6100   20.1930    8.5670 DU        1 non     -0.073000
     12 O1        -18.2770   16.7290    5.5130 os        1 non     -0.309000
     13 H1        -14.5550   20.4590    4.5850 DU        1 non      0.142222
     14 H2        -15.1530   19.2170    3.4910 DU        1 non      0.142222
     15 H3        -13.8820   18.1730    5.3960 DU        1 non      0.142222
     16 H4        -15.6510   16.5420    6.1300 DU        1 non      0.142222
     17 H5        -15.8030   16.8840    4.4120 DU        1 non      0.142222
     18 H6        -16.9600   20.8950    3.9890 DU        1 non      0.142222
     19 H7        -18.7390   19.2720    4.7190 DU        1 non      0.142222
     20 H8        -17.6450   18.5130    3.5700 DU        1 non      0.142222
     21 H9        -16.1650   21.5820    6.2700 DU        1 non      0.142222
     22 H10       -17.8580   21.1020    6.3260 DU        1 non      0.142222
     23 H11       -14.3230   19.9530    7.1120 DU        1 non      0.142222
     24 H12       -14.7670   18.3690    7.7390 DU        1 non      0.142222
     25 H13       -17.2650   17.6610    7.8200 DU        1 non      0.142222
     26 H14       -18.5140   18.7650    7.2500 DU        1 non      0.142222
     27 H15       -15.9600   20.9770    8.6620 DU        1 non      0.142222
     28 H16       -17.5670   20.5210    8.7160 DU        1 non      0.142222
     29 H17       -16.3820   19.4740    9.2570 DU        1 non      0.142222
     30 H18       -18.1520   16.3980    4.5990 DU        1 non      0.142222
@<TRIPOS>BOND
@<TRIPOS>SUBSTRUCTURE
     1 non         1 TEMP              0 ****  ****    0 ROOT
