@<TRIPOS>MOLECULE
26
   26     0     1     0     0
SMALL
bcc


@<TRIPOS>ATOM
      1 N1        -16.2010   19.0910  -15.6870 DU        1 non     -0.066000
      2 C1        -15.5360   19.1210  -14.3820 DU        1 non     -0.160667
      3 C2        -16.5820   19.0640  -13.2460 DU        1 non     -0.160667
      4 C3        -15.9380   19.0930  -11.8350 DU        1 non     -0.160667
      5 C4        -16.9910   19.0350  -10.6950 DU        1 non     -0.160667
      6 C5        -16.3470   19.0650   -9.2850 DU        1 non     -0.160667
      7 C6        -17.3930   19.0080   -8.1490 DU        1 non     -0.160667
      8 N2        -16.7290   19.0380   -6.8430 DU        1 non     -0.066000
      9 H1        -15.5040   19.1290  -16.4330 DU        1 non      0.171889
     10 H2        -16.8290   19.8930  -15.7680 DU        1 non      0.171889
     11 H3        -16.7440   18.2280  -15.7730 DU        1 non      0.171889
     12 H4        -14.8580   18.2660  -14.3170 DU        1 non      0.171889
     13 H5        -14.9500   20.0400  -14.3120 DU        1 non      0.171889
     14 H6        -17.2580   19.9180  -13.3500 DU        1 non      0.171889
     15 H7        -17.1670   18.1460  -13.3550 DU        1 non      0.171889
     16 H8        -15.3530   20.0100  -11.7340 DU        1 non      0.171889
     17 H9        -15.2620   18.2400  -11.7390 DU        1 non      0.171889
     18 H10       -17.5760   18.1180  -10.7960 DU        1 non      0.171889
     19 H11       -17.6670   19.8880  -10.7910 DU        1 non      0.171889
     20 H12       -15.6710   18.2110   -9.1810 DU        1 non      0.171889
     21 H13       -15.7620   19.9830   -9.1760 DU        1 non      0.171889
     22 H14       -17.9800   18.0880   -8.2180 DU        1 non      0.171889
     23 H15       -18.0710   19.8620   -8.2130 DU        1 non      0.171889
     24 H16       -17.4250   19.0000   -6.0970 DU        1 non      0.171889
     25 H17       -16.1000   18.2350   -6.7620 DU        1 non      0.171889
     26 H18       -16.1860   19.9000   -6.7570 DU        1 non      0.171889
@<TRIPOS>BOND
@<TRIPOS>SUBSTRUCTURE
     1 non         1 TEMP              0 ****  ****    0 ROOT
