@<TRIPOS>MOLECULE

18 18 1
SMALL
USER_CHARGES
@<TRIPOS>ATOM
1	C1   -15.2572   -14.9226   -11.0215	C.2	1	noname	0.0204
2	C2   -15.6731   -15.9520   -10.1531	C.2	1	noname	0.0171
3	C3   -16.8817   -16.6278   -10.3968	C.2	1	noname	0.0171
4	C4   -17.6723   -16.2730   -11.5085	C.2	1	noname	0.0204
5	C5   -17.2555   -15.2447   -12.3780	C.2	1	noname	0.0171
6	C6   -16.0469   -14.5689   -12.1343	C.2	1	noname	0.0171
7	N1   -14.0587   -14.2523   -10.7797	N.4	1	noname	0.0191
8	N2   -18.8710   -16.9430   -11.7501	N.4	1	noname	0.0191
9	H1   -15.1008   -16.2111    -9.3445	H	1	noname	0.0696
10	H2   -17.1821   -17.3748    -9.7642	H	1	noname	0.0696
11	H3   -17.8278   -14.9857   -13.1865	H	1	noname	0.0696
12	H4   -15.7466   -13.8219   -12.7668	H	1	noname	0.0696
13	H5   -13.8739   -14.2376    -9.7738	H	1	noname	0.2624
14	H6   -14.1293   -13.2928   -11.1271	H	1	noname	0.2624
15	H7   -13.2989   -14.7381   -11.2623	H	1	noname	0.2624
16	H8   -18.6888   -17.7518   -12.3491	H	1	noname	0.2624
17	H9   -19.2712   -17.2555   -10.8622	H	1	noname	0.2624
18	H10   -19.5266   -16.3107   -12.2155	H	1	noname	0.2624
@<TRIPOS>BOND
1	1	2	1
2	1	6	2
3	1	7	1
4	2	3	2
5	2	9	1
6	3	4	1
7	3	10	1
8	4	5	2
9	4	8	1
10	5	6	1
11	5	11	1
12	6	12	1
13	7	13	1
14	7	14	1
15	7	15	1
16	8	16	1
17	8	17	1
18	8	18	1
@<TRIPOS>SUBSTRUCTURE
1	noname	1
