@<TRIPOS>MOLECULE
22
   22     0     1     0     0
SMALL
bcc


@<TRIPOS>ATOM
      1 C1        -17.6810    0.1740    5.6980 DU        1 non     -0.146143
      2 C2        -16.2010    0.1110    5.2410 DU        1 non     -0.146143
      3 C3        -17.6640    1.3730    6.6860 DU        1 non     -0.146143
      4 C4        -17.4820    2.7140    5.9160 DU        1 non     -0.146143
      5 C5        -15.9860    2.6580    5.4910 DU        1 non     -0.146143
      6 C6        -15.5490    1.2710    6.0500 DU        1 non     -0.146143
      7 C7        -16.3080    1.2000    7.3880 DU        1 non     -0.146143
      8 N1        -15.1930    3.7550    6.0760 DU        1 non     -0.064000
      9 H1        -17.9710   -0.7460    6.2130 DU        1 non      0.149071
     10 H2        -18.3630    0.3430    4.8610 DU        1 non      0.149071
     11 H3        -15.7520   -0.8500    5.5130 DU        1 non      0.149071
     12 H4        -16.1010    0.2590    4.1630 DU        1 non      0.149071
     13 H5        -18.5170    1.3800    7.3680 DU        1 non      0.149071
     14 H6        -17.6890    3.5650    6.5720 DU        1 non      0.149071
     15 H7        -18.1460    2.7720    5.0480 DU        1 non      0.149071
     16 H8        -15.8770    2.7000    4.4020 DU        1 non      0.149071
     17 H9        -14.4640    1.1630    6.1490 DU        1 non      0.149071
     18 H10       -16.1960    0.2390    7.9050 DU        1 non      0.149071
     19 H11       -16.0660    2.0140    8.0790 DU        1 non      0.149071
     20 H12       -15.5330    4.6500    5.7210 DU        1 non      0.149071
     21 H13       -15.2740    3.7460    7.0940 DU        1 non      0.149071
     22 H14       -14.2110    3.6380    5.8180 DU        1 non      0.149071
@<TRIPOS>BOND
@<TRIPOS>SUBSTRUCTURE
     1 non         1 TEMP              0 ****  ****    0 ROOT
