@<TRIPOS>MOLECULE

26 25 1
SMALL
USER_CHARGES
@<TRIPOS>ATOM
1	N1   -16.2007    19.0906   -15.6872	N.4	1	noname	-0.0093
2	C1   -15.5358    19.1210   -14.3817	C.3	1	noname	-0.0137
3	C2   -16.5825    19.0639   -13.2456	C.3	1	noname	-0.0045
4	C3   -15.9380    19.0930   -11.8352	C.3	1	noname	-0.0469
5	C4   -16.9911    19.0355   -10.6952	C.3	1	noname	-0.0469
6	C5   -16.3466    19.0646    -9.2849	C.3	1	noname	-0.0045
7	C6   -17.3933    19.0075    -8.1488	C.3	1	noname	-0.0137
8	N2   -16.7285    19.0379    -6.8433	N.4	1	noname	-0.0093
9	H1   -15.5038    19.1286   -16.4335	H	1	noname	0.2554
10	H2   -16.8293    19.8930   -15.7684	H	1	noname	0.2554
11	H3   -16.7436    18.2283   -15.7732	H	1	noname	0.2554
12	H4   -14.8582    18.2664   -14.3173	H	1	noname	0.0939
13	H5   -14.9496    20.0404   -14.3121	H	1	noname	0.0939
14	H6   -17.2580    19.9176   -13.3496	H	1	noname	0.0332
15	H7   -17.1668    18.1459   -13.3547	H	1	noname	0.0332
16	H8   -15.3533    20.0103   -11.7341	H	1	noname	0.0269
17	H9   -15.2622    18.2401   -11.7392	H	1	noname	0.0269
18	H10   -17.5758    18.1182   -10.7963	H	1	noname	0.0269
19	H11   -17.6670    19.8884   -10.7912	H	1	noname	0.0269
20	H12   -15.6712    18.2109    -9.1809	H	1	noname	0.0332
21	H13   -15.7624    19.9826    -9.1758	H	1	noname	0.0332
22	H14   -17.9796    18.0881    -8.2183	H	1	noname	0.0939
23	H15   -18.0709    19.8621    -8.2132	H	1	noname	0.0939
24	H16   -17.4254    18.9999    -6.0970	H	1	noname	0.2554
25	H17   -16.0999    18.2355    -6.7621	H	1	noname	0.2554
26	H18   -16.1856    19.9002    -6.7573	H	1	noname	0.2554
@<TRIPOS>BOND
1	1	2	1
2	1	9	1
3	1	10	1
4	1	11	1
5	2	3	1
6	2	12	1
7	2	13	1
8	3	4	1
9	3	14	1
10	3	15	1
11	4	5	1
12	4	16	1
13	4	17	1
14	5	6	1
15	5	18	1
16	5	19	1
17	6	7	1
18	6	20	1
19	6	21	1
20	7	8	1
21	7	22	1
22	7	23	1
23	8	24	1
24	8	25	1
25	8	26	1
@<TRIPOS>SUBSTRUCTURE
1	noname	1
