@<TRIPOS>MOLECULE

26 28 1
SMALL
USER_CHARGES
@<TRIPOS>ATOM
1	C1     0.6511   -14.9118    24.9159	C.3	1	noname	-0.0339
2	C2     2.1696   -14.6712    24.5487	C.3	1	noname	-0.0470
3	C3     2.4459   -15.1179    23.0557	C.3	1	noname	-0.0339
4	C4     2.0026   -16.5889    22.8488	C.3	1	noname	0.0044
5	C5     0.4715   -16.4586    23.1124	C.3	1	noname	0.0114
6	C6     0.2691   -16.3882    24.6564	C.3	1	noname	0.0044
7	C7    -0.2763   -14.2258    23.8810	C.3	1	noname	-0.0406
8	C8     0.1161   -15.0123    22.5976	C.3	1	noname	0.0133
9	C9     1.4614   -14.4262    22.0804	C.3	1	noname	-0.0406
10	N1    -0.3212   -17.5350    22.4958	N.4	1	noname	-0.0050
11	H1     0.4245   -14.6041    25.9403	H	1	noname	0.0306
12	H2     2.8078   -15.2474    25.2252	H	1	noname	0.0272
13	H3     2.4147   -13.6139    24.6714	H	1	noname	0.0272
14	H4     3.4881   -14.9564    22.7664	H	1	noname	0.0306
15	H5     2.5135   -17.2686    23.5371	H	1	noname	0.0342
16	H6     2.2050   -16.9361    21.8299	H	1	noname	0.0342
17	H7    -0.7694   -16.5898    24.9394	H	1	noname	0.0342
18	H8     0.9052   -17.0790    25.2173	H	1	noname	0.0342
19	H9    -0.0928   -13.1491    23.8170	H	1	noname	0.0275
20	H10    -1.3352   -14.3734    24.1172	H	1	noname	0.0275
21	H11    -0.6668   -14.9827    21.8349	H	1	noname	0.0375
22	H12     1.6470   -14.7197    21.0401	H	1	noname	0.0275
23	H13     1.5217   -13.3351    22.1350	H	1	noname	0.0275
24	H14    -0.0445   -18.4356    22.8910	H	1	noname	0.2559
25	H15    -1.3141   -17.3770    22.6819	H	1	noname	0.2559
26	H16    -0.1640   -17.5445    21.4862	H	1	noname	0.2559
@<TRIPOS>BOND
1	1	2	1
2	1	6	1
3	1	7	1
4	1	11	1
5	2	3	1
6	2	12	1
7	2	13	1
8	3	4	1
9	3	9	1
10	3	14	1
11	4	5	1
12	4	15	1
13	4	16	1
14	6	5	1
15	8	5	1
16	5	10	1
17	6	17	1
18	6	18	1
19	7	8	1
20	7	19	1
21	7	20	1
22	9	8	1
23	8	21	1
24	9	22	1
25	9	23	1
26	10	24	1
27	10	25	1
28	10	26	1
@<TRIPOS>SUBSTRUCTURE
1	noname	1
