@<TRIPOS>MOLECULE
26
   26     0     1     0     0
SMALL
bcc


@<TRIPOS>ATOM
      1 C1          0.6510  -14.9120   24.9160 DU        1 non     -0.136000
      2 C2          2.1700  -14.6710   24.5490 DU        1 non     -0.136000
      3 C3          2.4460  -15.1180   23.0560 DU        1 non     -0.136000
      4 C4          2.0030  -16.5890   22.8490 DU        1 non     -0.136000
      5 C5          0.4710  -16.4590   23.1120 DU        1 non     -0.136000
      6 C6          0.2690  -16.3880   24.6560 DU        1 non     -0.136000
      7 C7         -0.2760  -14.2260   23.8810 DU        1 non     -0.136000
      8 C8          0.1160  -15.0120   22.5980 DU        1 non     -0.136000
      9 C9          1.4610  -14.4260   22.0800 DU        1 non     -0.136000
     10 N1         -0.3210  -17.5350   22.4960 DU        1 non     -0.045000
     11 H1          0.4240  -14.6040   25.9400 DU        1 non      0.141875
     12 H2          2.8080  -15.2470   25.2250 DU        1 non      0.141875
     13 H3          2.4150  -13.6140   24.6710 DU        1 non      0.141875
     14 H4          3.4880  -14.9560   22.7660 DU        1 non      0.141875
     15 H5          2.5140  -17.2690   23.5370 DU        1 non      0.141875
     16 H6          2.2050  -16.9360   21.8300 DU        1 non      0.141875
     17 H7         -0.7690  -16.5900   24.9390 DU        1 non      0.141875
     18 H8          0.9050  -17.0790   25.2170 DU        1 non      0.141875
     19 H9         -0.0930  -13.1490   23.8170 DU        1 non      0.141875
     20 H10        -1.3350  -14.3730   24.1170 DU        1 non      0.141875
     21 H11        -0.6670  -14.9830   21.8350 DU        1 non      0.141875
     22 H12         1.6470  -14.7200   21.0400 DU        1 non      0.141875
     23 H13         1.5220  -13.3350   22.1350 DU        1 non      0.141875
     24 H14        -0.0440  -18.4360   22.8910 DU        1 non      0.141875
     25 H15        -1.3140  -17.3770   22.6820 DU        1 non      0.141875
     26 H16        -0.1640  -17.5440   21.4860 DU        1 non      0.141875
@<TRIPOS>BOND
@<TRIPOS>SUBSTRUCTURE
     1 non         1 TEMP              0 ****  ****    0 ROOT
